WNK463.cdx
 OpenBabel08302520433D

 57 60  0  0  0  0  0  0  0  0999 V2000
   -0.3229   -0.8660    1.4104 C   0  0  0  0  0  0  0  0  0  0  0  0
   -1.1498    0.2063    1.0680 C   0  0  0  0  0  0  0  0  0  0  0  0
   -0.6671    1.2650    0.2953 C   0  0  0  0  0  0  0  0  0  0  0  0
    0.5912    1.2182   -0.1900 N   0  0  0  0  0  0  0  0  0  0  0  0
    1.3866    0.1682    0.1555 C   0  0  0  0  0  0  0  0  0  0  0  0
    0.9957   -0.8862    0.9694 C   0  0  0  0  0  0  0  0  0  0  0  0
   -1.5018    2.3274   -0.0275 N   0  0  0  0  0  0  0  0  0  0  0  0
    1.9348   -1.9240    1.3423 C   0  0  0  0  0  0  0  0  0  0  0  0
   -2.3138    2.9453    1.0192 C   0  0  0  0  0  0  0  0  0  0  0  0
   -3.6332    3.3815    0.3856 C   0  0  0  0  0  0  0  0  0  0  0  0
   -3.4374    4.2554   -0.8748 C   0  0  0  0  0  0  0  0  0  0  0  0
   -2.3246    3.7137   -1.8081 C   0  0  0  0  0  0  0  0  0  0  0  0
   -1.0651    3.2679   -1.0558 C   0  0  0  0  0  0  0  0  0  0  0  0
   -4.7066    4.4229   -1.6101 N   0  0  0  0  0  0  0  0  0  0  0  0
   -5.3960    3.3621   -2.1544 C   0  0  0  0  0  0  0  0  0  0  0  0
   -6.4077    3.7510   -2.8880 N   0  0  0  0  0  0  0  0  0  0  0  0
   -6.4207    5.1096   -2.7698 C   0  0  0  0  0  0  0  0  0  0  0  0
   -5.4279    5.5715   -1.9146 C   0  0  0  0  0  0  0  0  0  0  0  0
    1.4684   -2.9477    2.1295 O   0  0  0  0  0  0  0  0  0  0  0  0
    2.5909   -3.7249    2.2913 C   0  0  0  0  0  0  0  0  0  0  0  0
    3.6439   -3.2101    1.6782 N   0  0  0  0  0  0  0  0  0  0  0  0
    3.2157   -2.0518    1.0634 N   0  0  0  0  0  0  0  0  0  0  0  0
    2.4647   -4.9824    3.0709 C   0  0  0  0  0  0  0  0  0  0  0  0
    1.1980   -5.1818    3.5343 F   0  0  0  0  0  0  0  0  0  0  0  0
    2.7725   -6.0800    2.3275 F   0  0  0  0  0  0  0  0  0  0  0  0
    3.2780   -5.0057    4.1596 F   0  0  0  0  0  0  0  0  0  0  0  0
   -5.1886    6.9282   -1.4587 C   0  0  0  0  0  0  0  0  0  0  0  0
   -6.1288    7.8791   -1.8439 N   0  0  0  0  0  0  0  0  0  0  0  0
   -4.2239    7.2174   -0.7549 O   0  0  0  0  0  0  0  0  0  0  0  0
   -6.0663    9.3118   -1.4848 C   0  0  0  0  0  0  0  0  0  0  0  0
   -4.7613    9.9440   -1.9960 C   0  0  0  0  0  0  0  0  0  0  0  0
   -7.2447   10.0649   -2.1466 C   0  0  0  0  0  0  0  0  0  0  0  0
   -6.1788    9.5059    0.0351 C   0  0  0  0  0  0  0  0  0  0  0  0
   -0.7272   -1.6650    2.0265 H   0  0  0  0  0  0  0  0  0  0  0  0
   -2.1830    0.1910    1.3976 H   0  0  0  0  0  0  0  0  0  0  0  0
    2.3940    0.2162   -0.2547 H   0  0  0  0  0  0  0  0  0  0  0  0
   -1.7878    3.8037    1.4570 H   0  0  0  0  0  0  0  0  0  0  0  0
   -2.5371    2.2680    1.8504 H   0  0  0  0  0  0  0  0  0  0  0  0
   -4.2336    3.9261    1.1253 H   0  0  0  0  0  0  0  0  0  0  0  0
   -4.1975    2.4743    0.1389 H   0  0  0  0  0  0  0  0  0  0  0  0
   -3.1140    5.2425   -0.5373 H   0  0  0  0  0  0  0  0  0  0  0  0
   -2.6945    2.8451   -2.3667 H   0  0  0  0  0  0  0  0  0  0  0  0
   -2.0559    4.4719   -2.5537 H   0  0  0  0  0  0  0  0  0  0  0  0
   -0.3819    2.8125   -1.7832 H   0  0  0  0  0  0  0  0  0  0  0  0
   -0.5440    4.1256   -0.6098 H   0  0  0  0  0  0  0  0  0  0  0  0
   -5.1053    2.3310   -1.9977 H   0  0  0  0  0  0  0  0  0  0  0  0
   -7.1687    5.6848   -3.2975 H   0  0  0  0  0  0  0  0  0  0  0  0
   -6.9634    7.5638   -2.3075 H   0  0  0  0  0  0  0  0  0  0  0  0
   -4.6964    9.8855   -3.0881 H   0  0  0  0  0  0  0  0  0  0  0  0
   -4.6942   10.9992   -1.7091 H   0  0  0  0  0  0  0  0  0  0  0  0
   -3.8770    9.4453   -1.5907 H   0  0  0  0  0  0  0  0  0  0  0  0
   -8.2121    9.6408   -1.8527 H   0  0  0  0  0  0  0  0  0  0  0  0
   -7.2485   11.1243   -1.8585 H   0  0  0  0  0  0  0  0  0  0  0  0
   -7.1894   10.0214   -3.2403 H   0  0  0  0  0  0  0  0  0  0  0  0
   -7.1721    9.2179    0.4005 H   0  0  0  0  0  0  0  0  0  0  0  0
   -5.4456    8.9084    0.5828 H   0  0  0  0  0  0  0  0  0  0  0  0
   -6.0150   10.5546    0.3099 H   0  0  0  0  0  0  0  0  0  0  0  0
  1  2  2  0  0  0  0
  1 34  1  0  0  0  0
  2  3  1  0  0  0  0
  2 35  1  0  0  0  0
  3  4  2  0  0  0  0
  3  7  1  0  0  0  0
  4  5  1  0  0  0  0
  5  6  2  0  0  0  0
  5 36  1  0  0  0  0
  6  1  1  0  0  0  0
  6  8  1  0  0  0  0
  7  9  1  0  0  0  0
  8 19  1  0  0  0  0
  9 10  1  0  0  0  0
  9 37  1  0  0  0  0
  9 38  1  0  0  0  0
 10 11  1  0  0  0  0
 10 39  1  0  0  0  0
 10 40  1  0  0  0  0
 11 12  1  0  0  0  0
 11 14  1  0  0  0  0
 11 41  1  0  0  0  0
 12 13  1  0  0  0  0
 12 42  1  0  0  0  0
 12 43  1  0  0  0  0
 13  7  1  0  0  0  0
 13 44  1  0  0  0  0
 13 45  1  0  0  0  0
 14 15  1  0  0  0  0
 15 16  2  0  0  0  0
 15 46  1  0  0  0  0
 16 17  1  0  0  0  0
 17 18  2  0  0  0  0
 17 47  1  0  0  0  0
 18 14  1  0  0  0  0
 18 27  1  0  0  0  0
 19 20  1  0  0  0  0
 20 21  2  0  0  0  0
 20 23  1  0  0  0  0
 21 22  1  0  0  0  0
 22  8  2  0  0  0  0
 23 24  1  0  0  0  0
 23 25  1  0  0  0  0
 23 26  1  0  0  0  0
 27 28  1  0  0  0  0
 27 29  2  0  0  0  0
 28 30  1  0  0  0  0
 28 48  1  0  0  0  0
 30 31  1  0  0  0  0
 30 32  1  0  0  0  0
 30 33  1  0  0  0  0
 31 49  1  0  0  0  0
 31 50  1  0  0  0  0
 31 51  1  0  0  0  0
 32 52  1  0  0  0  0
 32 53  1  0  0  0  0
 32 54  1  0  0  0  0
 33 55  1  0  0  0  0
 33 56  1  0  0  0  0
 33 57  1  0  0  0  0
M  END
>  <Mol_ID>
4063

>  <Formula>
C21H24F3N7O2

>  <MolWeight>
463.4561696

>  <Cat>
S8358

>  <Name>
WNK463

>  <Synonyms>
N/A

>  <Target>
Serine/threonin kinase

>  <Form>
free base

>  <CAS>
2012607-27-9

>  <URL>
http://selleckchem.com/products/wnk463.html

$$$$
