Wnt agonist 1 HCl.cdx
 OpenBabel08302520413D

 44 47  0  0  0  0  0  0  0  0999 V2000
   -0.2162    1.1688   -0.1352 N   0  0  0  0  0  0  0  0  0  0  0  0
    1.1300    1.2168   -0.0919 C   0  0  0  0  0  0  0  0  0  0  0  0
    1.8839    0.0646   -0.0314 C   0  0  0  0  0  0  0  0  0  0  0  0
    1.2131   -1.1383    0.0312 C   0  0  0  0  0  0  0  0  0  0  0  0
   -0.1226   -1.1972    0.0250 N   0  0  0  0  0  0  0  0  0  0  0  0
   -0.7805   -0.0398   -0.0933 C   0  0  0  0  0  0  0  0  0  0  0  0
    1.7453    2.5584   -0.1377 C   0  0  0  0  0  0  0  0  0  0  0  0
   -2.1597   -0.0898   -0.1410 N   0  0  0  0  0  0  0  0  0  0  0  0
    1.9869   -2.2774    0.1815 N   0  0  0  0  0  0  0  0  0  0  0  0
    1.4096   -3.5239    0.6337 C   0  0  0  0  0  0  0  0  0  0  0  0
    2.3575   -4.0323    1.6999 C   0  0  0  0  0  0  0  0  0  0  0  0
    1.1205    3.6117   -0.8258 C   0  0  0  0  0  0  0  0  0  0  0  0
    1.7225    4.8678   -0.9309 C   0  0  0  0  0  0  0  0  0  0  0  0
    2.9577    5.1074   -0.3302 C   0  0  0  0  0  0  0  0  0  0  0  0
    3.5801    4.0965    0.3969 C   0  0  0  0  0  0  0  0  0  0  0  0
    2.9813    2.8348    0.4791 C   0  0  0  0  0  0  0  0  0  0  0  0
    3.4449   -4.8741    1.3663 C   0  0  0  0  0  0  0  0  0  0  0  0
    4.4341   -5.1743    2.3098 C   0  0  0  0  0  0  0  0  0  0  0  0
    4.3235   -4.6018    3.5570 C   0  0  0  0  0  0  0  0  0  0  0  0
    3.2613   -3.7945    3.8955 C   0  0  0  0  0  0  0  0  0  0  0  0
    2.2580   -3.5051    3.0003 C   0  0  0  0  0  0  0  0  0  0  0  0
    5.2285   -4.7083    4.5692 O   0  0  0  0  0  0  0  0  0  0  0  0
    4.6892   -3.7518    5.5065 C   0  0  0  0  0  0  0  0  0  0  0  0
    3.3658   -3.2988    5.1577 O   0  0  0  0  0  0  0  0  0  0  0  0
    4.7859    4.2087    1.0345 O   0  0  0  0  0  0  0  0  0  0  0  0
    5.1416    5.5240    1.4466 C   0  0  0  0  0  0  0  0  0  0  0  0
    2.9651    0.0866   -0.0038 H   0  0  0  0  0  0  0  0  0  0  0  0
   -2.5408    0.7800    0.2037 H   0  0  0  0  0  0  0  0  0  0  0  0
   -2.4838   -0.9443    0.2896 H   0  0  0  0  0  0  0  0  0  0  0  0
    2.7277   -2.3726   -0.5019 H   0  0  0  0  0  0  0  0  0  0  0  0
    0.4069   -3.4199    1.0663 H   0  0  0  0  0  0  0  0  0  0  0  0
    1.3346   -4.2370   -0.1958 H   0  0  0  0  0  0  0  0  0  0  0  0
    0.1572    3.4464   -1.3065 H   0  0  0  0  0  0  0  0  0  0  0  0
    1.2280    5.6554   -1.4933 H   0  0  0  0  0  0  0  0  0  0  0  0
    3.4144    6.0830   -0.4564 H   0  0  0  0  0  0  0  0  0  0  0  0
    3.4954    2.0692    1.0569 H   0  0  0  0  0  0  0  0  0  0  0  0
    3.5471   -5.2569    0.3529 H   0  0  0  0  0  0  0  0  0  0  0  0
    5.2858   -5.7950    2.0550 H   0  0  0  0  0  0  0  0  0  0  0  0
    1.4569   -2.8243    3.2707 H   0  0  0  0  0  0  0  0  0  0  0  0
    5.3554   -2.8800    5.5360 H   0  0  0  0  0  0  0  0  0  0  0  0
    4.6597   -4.2045    6.5027 H   0  0  0  0  0  0  0  0  0  0  0  0
    5.4453    6.1353    0.5911 H   0  0  0  0  0  0  0  0  0  0  0  0
    4.3274    6.0010    2.0031 H   0  0  0  0  0  0  0  0  0  0  0  0
    6.0011    5.4417    2.1189 H   0  0  0  0  0  0  0  0  0  0  0  0
  1  2  2  0  0  0  0
  2  3  1  0  0  0  0
  2  7  1  0  0  0  0
  3  4  2  0  0  0  0
  3 27  1  0  0  0  0
  4  5  1  0  0  0  0
  4  9  1  0  0  0  0
  5  6  2  0  0  0  0
  6  1  1  0  0  0  0
  6  8  1  0  0  0  0
  7 12  2  0  0  0  0
  8 28  1  0  0  0  0
  8 29  1  0  0  0  0
  9 10  1  0  0  0  0
  9 30  1  0  0  0  0
 10 11  1  0  0  0  0
 10 31  1  0  0  0  0
 10 32  1  0  0  0  0
 11 17  2  0  0  0  0
 12 13  1  0  0  0  0
 12 33  1  0  0  0  0
 13 14  2  0  0  0  0
 13 34  1  0  0  0  0
 14 15  1  0  0  0  0
 14 35  1  0  0  0  0
 15 16  2  0  0  0  0
 15 25  1  0  0  0  0
 16  7  1  0  0  0  0
 16 36  1  0  0  0  0
 17 18  1  0  0  0  0
 17 37  1  0  0  0  0
 18 19  2  0  0  0  0
 18 38  1  0  0  0  0
 19 20  1  0  0  0  0
 19 22  1  0  0  0  0
 20 21  2  0  0  0  0
 21 11  1  0  0  0  0
 21 39  1  0  0  0  0
 22 23  1  0  0  0  0
 23 24  1  0  0  0  0
 23 40  1  0  0  0  0
 23 41  1  0  0  0  0
 24 20  1  0  0  0  0
 25 26  1  0  0  0  0
 26 42  1  0  0  0  0
 26 43  1  0  0  0  0
 26 44  1  0  0  0  0
M  END
>  <Mol_ID>
3921

>  <Formula>
C19H19ClN4O3

>  <MolWeight>
386.83216

>  <Cat>
S8178

>  <Name>
Wnt agonist 1

>  <Synonyms>
BML-284 HCL, BML-284 hydrochloride, AMBMP hydrochloride, AMBMP HCL

>  <Target>
Wnt/beta-catenin

>  <Form>
hydrochloride

>  <CAS>
2095432-75-8

>  <URL>
http://selleckchem.com/products/wnt-agonist-1.html

$$$$
