WQ 1
 OpenBabel08302521323D

 47 50  0  0  0  0  0  0  0  0999 V2000
   -2.2977    0.6917   -0.3582 C   0  0  3  0  0  0  0  0  0  0  0  0
   -2.4590   -0.3154    0.7724 C   0  0  0  0  0  0  0  0  0  0  0  0
   -1.2669   -1.1821    1.0884 C   0  0  0  0  0  0  0  0  0  0  0  0
    0.1012   -0.7155    0.7516 C   0  0  0  0  0  0  0  0  0  0  0  0
    0.3622    0.6095    0.3936 C   0  0  0  0  0  0  0  0  0  0  0  0
   -0.9111    1.8142    0.0955 S   0  0  0  0  0  0  0  0  0  0  0  0
    1.6891    0.9937    0.1552 C   0  0  0  0  0  0  0  0  0  0  0  0
    2.7175    0.0473    0.1501 C   0  0  0  0  0  0  0  0  0  0  0  0
    2.4329   -1.2920    0.3927 C   0  0  0  0  0  0  0  0  0  0  0  0
    1.1332   -1.6689    0.7231 C   0  0  0  0  0  0  0  0  0  0  0  0
   -1.4143   -2.2688    1.6453 O   0  0  0  0  0  0  0  0  0  0  0  0
   -2.4176   -2.7172   -2.3661 N   0  0  0  0  0  0  0  0  0  0  0  0
   -3.6167   -1.9590   -1.9987 C   0  0  0  0  0  0  0  0  0  0  0  0
   -3.5660   -0.4631   -2.3268 C   0  0  0  0  0  0  0  0  0  0  0  0
   -2.2896    0.2568   -1.8649 C   0  0  0  0  0  0  0  0  0  0  0  0
   -1.1157   -0.5407   -2.4437 C   0  0  0  0  0  0  0  0  0  0  0  0
   -1.1478   -2.0328   -2.1280 C   0  0  0  0  0  0  0  0  0  0  0  0
   -2.3849   -4.0206   -1.6475 C   0  0  0  0  0  0  0  0  0  0  0  0
   -3.5008   -4.9562   -2.0400 C   0  0  0  0  0  0  0  0  0  0  0  0
   -3.6519   -5.3412   -3.3803 C   0  0  0  0  0  0  0  0  0  0  0  0
   -4.7255   -6.1406   -3.7683 C   0  0  0  0  0  0  0  0  0  0  0  0
   -5.6445   -6.5802   -2.8208 C   0  0  0  0  0  0  0  0  0  0  0  0
   -5.4767   -6.2512   -1.4739 C   0  0  0  0  0  0  0  0  0  0  0  0
   -4.4048   -5.4451   -1.0864 C   0  0  0  0  0  0  0  0  0  0  0  0
   -3.1780    1.3439   -0.2767 H   0  0  0  0  0  0  0  0  0  0  0  0
   -2.7100    0.2130    1.7055 H   0  0  0  0  0  0  0  0  0  0  0  0
   -3.3119   -0.9657    0.5837 H   0  0  0  0  0  0  0  0  0  0  0  0
    1.9308    2.0311   -0.0755 H   0  0  0  0  0  0  0  0  0  0  0  0
    3.7378    0.3542   -0.0743 H   0  0  0  0  0  0  0  0  0  0  0  0
    3.2167   -2.0422    0.3265 H   0  0  0  0  0  0  0  0  0  0  0  0
    0.9133   -2.7193    0.9123 H   0  0  0  0  0  0  0  0  0  0  0  0
   -3.8575   -2.0828   -0.9424 H   0  0  0  0  0  0  0  0  0  0  0  0
   -4.4732   -2.3761   -2.5434 H   0  0  0  0  0  0  0  0  0  0  0  0
   -4.4581    0.0402   -1.9426 H   0  0  0  0  0  0  0  0  0  0  0  0
   -3.6281   -0.3651   -3.4282 H   0  0  0  0  0  0  0  0  0  0  0  0
   -2.2851    1.2125   -2.4129 H   0  0  0  0  0  0  0  0  0  0  0  0
   -1.1510   -0.4386   -3.5384 H   0  0  0  0  0  0  0  0  0  0  0  0
   -0.1530   -0.1106   -2.1579 H   0  0  0  0  0  0  0  0  0  0  0  0
   -0.3763   -2.5177   -2.7388 H   0  0  0  0  0  0  0  0  0  0  0  0
   -0.8430   -2.1913   -1.1014 H   0  0  0  0  0  0  0  0  0  0  0  0
   -1.4400   -4.5434   -1.8530 H   0  0  0  0  0  0  0  0  0  0  0  0
   -2.4051   -3.8522   -0.5604 H   0  0  0  0  0  0  0  0  0  0  0  0
   -2.9374   -4.9939   -4.1233 H   0  0  0  0  0  0  0  0  0  0  0  0
   -4.8483   -6.4071   -4.8154 H   0  0  0  0  0  0  0  0  0  0  0  0
   -6.4973   -7.1800   -3.1286 H   0  0  0  0  0  0  0  0  0  0  0  0
   -6.1838   -6.6103   -0.7345 H   0  0  0  0  0  0  0  0  0  0  0  0
   -4.2861   -5.1929   -0.0324 H   0  0  0  0  0  0  0  0  0  0  0  0
  1  2  1  0  0  0  0
  1  6  1  0  0  0  0
  1 15  1  0  0  0  0
  1 25  1  0  0  0  0
  2  3  1  0  0  0  0
  2 26  1  0  0  0  0
  2 27  1  0  0  0  0
  3  4  1  0  0  0  0
  3 11  2  0  0  0  0
  4  5  2  0  0  0  0
  5  6  1  0  0  0  0
  7  8  2  0  0  0  0
  7  5  1  0  0  0  0
  7 28  1  0  0  0  0
  8  9  1  0  0  0  0
  8 29  1  0  0  0  0
  9 10  2  0  0  0  0
  9 30  1  0  0  0  0
 10  4  1  0  0  0  0
 10 31  1  0  0  0  0
 12 13  1  0  0  0  0
 12 17  1  0  0  0  0
 12 18  1  0  0  0  0
 13 14  1  0  0  0  0
 13 32  1  0  0  0  0
 13 33  1  0  0  0  0
 14 15  1  0  0  0  0
 14 34  1  0  0  0  0
 14 35  1  0  0  0  0
 15 16  1  0  0  0  0
 15 36  1  0  0  0  0
 16 17  1  0  0  0  0
 16 37  1  0  0  0  0
 16 38  1  0  0  0  0
 17 39  1  0  0  0  0
 17 40  1  0  0  0  0
 18 19  1  0  0  0  0
 18 41  1  0  0  0  0
 18 42  1  0  0  0  0
 19 20  2  0  0  0  0
 19 24  1  0  0  0  0
 20 21  1  0  0  0  0
 20 43  1  0  0  0  0
 21 22  2  0  0  0  0
 21 44  1  0  0  0  0
 22 23  1  0  0  0  0
 22 45  1  0  0  0  0
 23 24  2  0  0  0  0
 23 46  1  0  0  0  0
 24 47  1  0  0  0  0
M  END
>  <Mol_ID>
6264

>  <Formula>
C21H23NOS

>  <MolWeight>
337.47842

>  <Cat>
E0388

>  <Name>
WQ 1

>  <Target>
Dopamine Receptor,Sigma Receptor

>  <Form>
free base

>  <CAS>
1204401-49-9

>  <URL>
http://www.selleckchem.com/products/wq-1.html

$$$$
