WS-12
 OpenBabel08302521313D

 48 49  0  0  0  0  0  0  0  0999 V2000
    4.7218    0.5980   -0.2237 O   0  0  0  0  0  0  0  0  0  0  0  0
   10.8219    0.0541   -2.3193 O   0  0  0  0  0  0  0  0  0  0  0  0
    5.4394   -1.2341   -1.4686 N   0  0  0  0  0  0  0  0  0  0  0  0
    2.4347   -1.3231   -2.1858 C   0  0  1  0  0  0  0  0  0  0  0  0
    3.0606   -1.0127   -0.7926 C   0  0  1  0  0  0  0  0  0  0  0  0
    1.1499   -2.1656   -2.0095 C   0  0  0  0  0  0  0  0  0  0  0  0
    1.8102   -3.0286    0.2511 C   0  0  1  0  0  0  0  0  0  0  0  0
    3.0879   -2.1944    0.1987 C   0  0  0  0  0  0  0  0  0  0  0  0
    1.3561   -3.4032   -1.1528 C   0  0  0  0  0  0  0  0  0  0  0  0
    2.0951   -0.0298   -3.0173 C   0  0  0  0  0  0  0  0  0  0  0  0
    4.4935   -0.4544   -0.8116 C   0  0  0  0  0  0  0  0  0  0  0  0
    2.0412   -4.2924    1.0815 C   0  0  0  0  0  0  0  0  0  0  0  0
    3.3226    0.8155   -3.3720 C   0  0  0  0  0  0  0  0  0  0  0  0
    1.3558   -0.3493   -4.3289 C   0  0  0  0  0  0  0  0  0  0  0  0
    6.8231   -0.9433   -1.5640 C   0  0  0  0  0  0  0  0  0  0  0  0
    7.4590    0.0026   -0.7575 C   0  0  0  0  0  0  0  0  0  0  0  0
    7.5896   -1.6188   -2.5191 C   0  0  0  0  0  0  0  0  0  0  0  0
    8.8005    0.3487   -0.9621 C   0  0  0  0  0  0  0  0  0  0  0  0
    8.9329   -1.2669   -2.7295 C   0  0  0  0  0  0  0  0  0  0  0  0
    9.5339   -0.2549   -1.9775 C   0  0  0  0  0  0  0  0  0  0  0  0
   11.3785    1.2125   -1.7022 C   0  0  0  0  0  0  0  0  0  0  0  0
    5.1069   -2.0075   -2.0310 H   0  0  0  0  0  0  0  0  0  0  0  0
    3.1395   -1.9232   -2.7748 H   0  0  0  0  0  0  0  0  0  0  0  0
    2.4357   -0.2295   -0.3380 H   0  0  0  0  0  0  0  0  0  0  0  0
    0.3579   -1.5452   -1.5692 H   0  0  0  0  0  0  0  0  0  0  0  0
    0.7832   -2.5089   -2.9825 H   0  0  0  0  0  0  0  0  0  0  0  0
    1.0205   -2.4381    0.7346 H   0  0  0  0  0  0  0  0  0  0  0  0
    3.9368   -2.8530   -0.0228 H   0  0  0  0  0  0  0  0  0  0  0  0
    3.2827   -1.7939    1.2046 H   0  0  0  0  0  0  0  0  0  0  0  0
    2.0916   -4.0616   -1.6317 H   0  0  0  0  0  0  0  0  0  0  0  0
    0.4138   -3.9621   -1.1003 H   0  0  0  0  0  0  0  0  0  0  0  0
    1.4242    0.6005   -2.4176 H   0  0  0  0  0  0  0  0  0  0  0  0
    2.3489   -4.0398    2.1012 H   0  0  0  0  0  0  0  0  0  0  0  0
    1.1287   -4.8943    1.1409 H   0  0  0  0  0  0  0  0  0  0  0  0
    2.8256   -4.9164    0.6377 H   0  0  0  0  0  0  0  0  0  0  0  0
    4.1127    0.2046   -3.8202 H   0  0  0  0  0  0  0  0  0  0  0  0
    3.0636    1.6036   -4.0884 H   0  0  0  0  0  0  0  0  0  0  0  0
    3.7202    1.3302   -2.4960 H   0  0  0  0  0  0  0  0  0  0  0  0
    0.3501   -0.7381   -4.1412 H   0  0  0  0  0  0  0  0  0  0  0  0
    1.2236    0.5513   -4.9390 H   0  0  0  0  0  0  0  0  0  0  0  0
    1.9094   -1.0824   -4.9249 H   0  0  0  0  0  0  0  0  0  0  0  0
    6.9373    0.4985    0.0546 H   0  0  0  0  0  0  0  0  0  0  0  0
    7.1565   -2.3954   -3.1433 H   0  0  0  0  0  0  0  0  0  0  0  0
    9.2291    1.1043   -0.3125 H   0  0  0  0  0  0  0  0  0  0  0  0
    9.5087   -1.7685   -3.5041 H   0  0  0  0  0  0  0  0  0  0  0  0
   10.7430    2.0944   -1.8441 H   0  0  0  0  0  0  0  0  0  0  0  0
   11.5648    1.0299   -0.6389 H   0  0  0  0  0  0  0  0  0  0  0  0
   12.3406    1.4226   -2.1795 H   0  0  0  0  0  0  0  0  0  0  0  0
  1 11  2  0  0  0  0
  2 20  1  0  0  0  0
  2 21  1  0  0  0  0
  3 11  1  0  0  0  0
  3 15  1  0  0  0  0
  3 22  1  0  0  0  0
  4  5  1  0  0  0  0
  4  6  1  0  0  0  0
  4 10  1  0  0  0  0
  4 23  1  6  0  0  0
  5  8  1  0  0  0  0
  5 24  1  1  0  0  0
  5 11  1  0  0  0  0
  6  9  1  0  0  0  0
  6 25  1  0  0  0  0
  6 26  1  0  0  0  0
  7  8  1  0  0  0  0
  7  9  1  0  0  0  0
  7 12  1  0  0  0  0
  7 27  1  1  0  0  0
  8 28  1  0  0  0  0
  8 29  1  0  0  0  0
  9 30  1  0  0  0  0
  9 31  1  0  0  0  0
 10 13  1  0  0  0  0
 10 14  1  0  0  0  0
 10 32  1  0  0  0  0
 12 33  1  0  0  0  0
 12 34  1  0  0  0  0
 12 35  1  0  0  0  0
 13 36  1  0  0  0  0
 13 37  1  0  0  0  0
 13 38  1  0  0  0  0
 14 39  1  0  0  0  0
 14 40  1  0  0  0  0
 14 41  1  0  0  0  0
 15 16  2  0  0  0  0
 15 17  1  0  0  0  0
 16 18  1  0  0  0  0
 16 42  1  0  0  0  0
 17 19  2  0  0  0  0
 17 43  1  0  0  0  0
 18 20  2  0  0  0  0
 18 44  1  0  0  0  0
 19 20  1  0  0  0  0
 19 45  1  0  0  0  0
 21 46  1  0  0  0  0
 21 47  1  0  0  0  0
 21 48  1  0  0  0  0
M  END
>  <Mol_ID>
6002

>  <Formula>
C18H27NO2

>  <MolWeight>
289.41248

>  <Cat>
S2963

>  <Name>
WS-12

>  <Synonyms>
N/A

>  <Target>
TRP Channel

>  <Form>
Free Base

>  <CAS>
68489-09-8

>  <URL>
http://www.selleckchem.com/products/ws-12.html

$$$$
