WYE-176235
 OpenBabel08302521443D

 35 36  0  0  0  0  0  0  0  0999 V2000
   -0.0420   -1.3769    0.0527 C   0  0  0  0  0  0  0  0  0  0  0  0
    0.0582   -2.8499    0.2984 C   0  0  0  0  0  0  0  0  0  0  0  0
   -0.9808   -0.7603   -0.7919 C   0  0  0  0  0  0  0  0  0  0  0  0
    0.8955   -0.5688    0.7133 C   0  0  0  0  0  0  0  0  0  0  0  0
   -1.1823   -3.7264    0.2390 C   0  0  0  0  0  0  0  0  0  0  0  0
    1.1614   -3.3287    0.5751 O   0  0  0  0  0  0  0  0  0  0  0  0
   -0.9887    0.6347   -0.9947 C   0  0  0  0  0  0  0  0  0  0  0  0
   -1.9328   -1.4664   -1.4697 O   0  0  0  0  0  0  0  0  0  0  0  0
    0.8967    0.8140    0.5297 C   0  0  0  0  0  0  0  0  0  0  0  0
   -1.4869   -4.3347   -1.1215 C   0  0  0  0  0  0  0  0  0  0  0  0
   -0.0301    1.4042   -0.3246 C   0  0  0  0  0  0  0  0  0  0  0  0
   -1.9767    1.2713   -1.9365 C   0  0  0  0  0  0  0  0  0  0  0  0
   -2.8123   -4.5550   -1.5620 C   0  0  0  0  0  0  0  0  0  0  0  0
   -0.4271   -4.6810   -1.9832 C   0  0  0  0  0  0  0  0  0  0  0  0
    0.0715    2.7587   -0.4689 O   0  0  0  0  0  0  0  0  0  0  0  0
   -3.0330   -5.0515   -2.8608 C   0  0  0  0  0  0  0  0  0  0  0  0
   -4.0424   -4.2548   -0.7442 C   0  0  0  0  0  0  0  0  0  0  0  0
   -0.6676   -5.1659   -3.2697 C   0  0  0  0  0  0  0  0  0  0  0  0
   -1.9710   -5.3452   -3.7119 C   0  0  0  0  0  0  0  0  0  0  0  0
    1.6323   -1.0126    1.3823 H   0  0  0  0  0  0  0  0  0  0  0  0
   -1.0540   -4.5427    0.9618 H   0  0  0  0  0  0  0  0  0  0  0  0
   -2.0084   -3.1171    0.6150 H   0  0  0  0  0  0  0  0  0  0  0  0
   -1.4847   -2.1350   -2.0197 H   0  0  0  0  0  0  0  0  0  0  0  0
    1.6259    1.4319    1.0491 H   0  0  0  0  0  0  0  0  0  0  0  0
   -2.5617    2.0337   -1.4123 H   0  0  0  0  0  0  0  0  0  0  0  0
   -1.4449    1.7311   -2.7764 H   0  0  0  0  0  0  0  0  0  0  0  0
   -2.6892    0.5577   -2.3609 H   0  0  0  0  0  0  0  0  0  0  0  0
    0.6092   -4.5642   -1.6683 H   0  0  0  0  0  0  0  0  0  0  0  0
   -0.5487    3.0618   -1.1502 H   0  0  0  0  0  0  0  0  0  0  0  0
   -4.0501   -5.2071   -3.2179 H   0  0  0  0  0  0  0  0  0  0  0  0
   -4.6340   -3.4766   -1.2389 H   0  0  0  0  0  0  0  0  0  0  0  0
   -4.6533   -5.1591   -0.6506 H   0  0  0  0  0  0  0  0  0  0  0  0
   -3.8289   -3.9145    0.2692 H   0  0  0  0  0  0  0  0  0  0  0  0
    0.1664   -5.4050   -3.9251 H   0  0  0  0  0  0  0  0  0  0  0  0
   -2.1635   -5.7225   -4.7128 H   0  0  0  0  0  0  0  0  0  0  0  0
  1  2  1  0  0  0  0
  1  3  2  0  0  0  0
  1  4  1  0  0  0  0
  2  5  1  0  0  0  0
  2  6  2  0  0  0  0
  3  7  1  0  0  0  0
  3  8  1  0  0  0  0
  4  9  2  0  0  0  0
  4 20  1  0  0  0  0
  5 10  1  0  0  0  0
  5 21  1  0  0  0  0
  5 22  1  0  0  0  0
  7 11  2  0  0  0  0
  7 12  1  0  0  0  0
  8 23  1  0  0  0  0
  9 11  1  0  0  0  0
  9 24  1  0  0  0  0
 10 13  2  0  0  0  0
 10 14  1  0  0  0  0
 11 15  1  0  0  0  0
 12 25  1  0  0  0  0
 12 26  1  0  0  0  0
 12 27  1  0  0  0  0
 13 16  1  0  0  0  0
 13 17  1  0  0  0  0
 14 18  2  0  0  0  0
 14 28  1  0  0  0  0
 15 29  1  0  0  0  0
 16 19  2  0  0  0  0
 16 30  1  0  0  0  0
 17 31  1  0  0  0  0
 17 32  1  0  0  0  0
 17 33  1  0  0  0  0
 18 19  1  0  0  0  0
 18 34  1  0  0  0  0
 19 35  1  0  0  0  0
M  END
>  <Mol_ID>
9171

>  <Formula>
C16H16O3

>  <MolWeight>
256.29644

>  <Cat>
P3243

>  <Name>
WYE-176235

>  <Synonyms>
N/A

>  <Target>
SOD-1

>  <Form>
free base

>  <CAS>
302918-17-8

>  <URL>
N/A

$$$$
