WYE-354.cdx
 OpenBabel08302522043D

 65 69  0  0  0  0  0  0  0  0999 V2000
   -0.3747   -1.0399    0.6113 C   0  0  0  0  0  0  0  0  0  0  0  0
    0.2262   -1.2817   -0.6256 C   0  0  0  0  0  0  0  0  0  0  0  0
    0.5100   -0.1652   -1.4253 C   0  0  0  0  0  0  0  0  0  0  0  0
    0.1376    1.1302   -1.0098 C   0  0  0  0  0  0  0  0  0  0  0  0
   -0.5375    1.3738    0.1994 C   0  0  0  0  0  0  0  0  0  0  0  0
   -0.7412    0.2543    1.0219 C   0  0  0  0  0  0  0  0  0  0  0  0
    0.5397   -2.5859   -1.0981 N   0  0  0  0  0  0  0  0  0  0  0  0
    0.2891   -3.7816   -0.4587 C   0  0  0  0  0  0  0  0  0  0  0  0
    0.6911   -4.8340   -1.2214 O   0  0  0  0  0  0  0  0  0  0  0  0
   -0.2295   -3.9259    0.6440 O   0  0  0  0  0  0  0  0  0  0  0  0
    0.4673   -6.1196   -0.6080 C   0  0  0  0  0  0  0  0  0  0  0  0
   -1.0524    2.7310    0.5487 C   0  0  0  0  0  0  0  0  0  0  0  0
   -0.8612    3.7022   -0.3766 N   0  0  0  0  0  0  0  0  0  0  0  0
   -1.4444    4.8617   -0.0323 C   0  0  0  0  0  0  0  0  0  0  0  0
   -2.1788    5.0974    1.1139 C   0  0  0  0  0  0  0  0  0  0  0  0
   -2.3427    4.0471    2.0237 C   0  0  0  0  0  0  0  0  0  0  0  0
   -1.7409    2.8646    1.7133 N   0  0  0  0  0  0  0  0  0  0  0  0
   -3.0597    4.1809    3.1866 N   0  0  0  0  0  0  0  0  0  0  0  0
   -2.7256    3.4000    4.3746 C   0  0  0  0  0  0  0  0  0  0  0  0
   -3.9690    2.6529    4.8753 C   0  0  0  0  0  0  0  0  0  0  0  0
   -5.0879    3.5403    5.0633 O   0  0  0  0  0  0  0  0  0  0  0  0
   -5.4254    4.1814    3.8252 C   0  0  0  0  0  0  0  0  0  0  0  0
   -4.2564    5.0176    3.2940 C   0  0  0  0  0  0  0  0  0  0  0  0
   -1.4441    6.0496   -0.7252 N   0  0  0  0  0  0  0  0  0  0  0  0
   -2.1262    7.0299   -0.0932 N   0  0  0  0  0  0  0  0  0  0  0  0
   -2.5383    6.4548    1.0312 C   0  0  0  0  0  0  0  0  0  0  0  0
   -0.8002    6.3406   -2.0006 C   0  0  0  0  0  0  0  0  0  0  0  0
    0.2234    7.4832   -1.8973 C   0  0  0  0  0  0  0  0  0  0  0  0
   -0.4307    8.8600   -1.7971 C   0  0  0  0  0  0  0  0  0  0  0  0
   -1.4157    9.0469   -2.8565 N   0  0  0  0  0  0  0  0  0  0  0  0
   -2.4436    8.0182   -3.0037 C   0  0  0  0  0  0  0  0  0  0  0  0
   -1.8136    6.6315   -3.1182 C   0  0  0  0  0  0  0  0  0  0  0  0
   -1.4511   10.2563   -3.5286 C   0  0  0  0  0  0  0  0  0  0  0  0
   -0.6608   11.1700   -3.3332 O   0  0  0  0  0  0  0  0  0  0  0  0
   -2.4342   10.3063   -4.4643 O   0  0  0  0  0  0  0  0  0  0  0  0
   -2.4366   11.5029   -5.2364 C   0  0  0  0  0  0  0  0  0  0  0  0
   -0.5999   -1.8510    1.3002 H   0  0  0  0  0  0  0  0  0  0  0  0
    1.0028   -0.2696   -2.3894 H   0  0  0  0  0  0  0  0  0  0  0  0
    0.3656    1.9693   -1.6668 H   0  0  0  0  0  0  0  0  0  0  0  0
   -1.2158    0.3653    1.9961 H   0  0  0  0  0  0  0  0  0  0  0  0
    0.9648   -2.6737   -2.0136 H   0  0  0  0  0  0  0  0  0  0  0  0
    1.0100   -6.2036    0.3403 H   0  0  0  0  0  0  0  0  0  0  0  0
   -0.6018   -6.3008   -0.4490 H   0  0  0  0  0  0  0  0  0  0  0  0
    0.8446   -6.8948   -1.2819 H   0  0  0  0  0  0  0  0  0  0  0  0
   -2.3972    4.1054    5.1488 H   0  0  0  0  0  0  0  0  0  0  0  0
   -1.9018    2.6968    4.2130 H   0  0  0  0  0  0  0  0  0  0  0  0
   -4.2581    1.8613    4.1747 H   0  0  0  0  0  0  0  0  0  0  0  0
   -3.7551    2.1891    5.8425 H   0  0  0  0  0  0  0  0  0  0  0  0
   -6.2907    4.8288    3.9996 H   0  0  0  0  0  0  0  0  0  0  0  0
   -5.7201    3.4201    3.0925 H   0  0  0  0  0  0  0  0  0  0  0  0
   -4.0420    5.8453    3.9807 H   0  0  0  0  0  0  0  0  0  0  0  0
   -4.5730    5.4405    2.3362 H   0  0  0  0  0  0  0  0  0  0  0  0
   -3.0897    7.0546    1.7421 H   0  0  0  0  0  0  0  0  0  0  0  0
   -0.2543    5.4292   -2.2732 H   0  0  0  0  0  0  0  0  0  0  0  0
    0.9047    7.3278   -1.0531 H   0  0  0  0  0  0  0  0  0  0  0  0
    0.8370    7.4711   -2.8084 H   0  0  0  0  0  0  0  0  0  0  0  0
   -0.9213    9.0211   -0.8319 H   0  0  0  0  0  0  0  0  0  0  0  0
    0.3513    9.6240   -1.8618 H   0  0  0  0  0  0  0  0  0  0  0  0
   -3.0524    8.1955   -3.8957 H   0  0  0  0  0  0  0  0  0  0  0  0
   -3.1301    8.0887   -2.1536 H   0  0  0  0  0  0  0  0  0  0  0  0
   -1.2812    6.5855   -4.0780 H   0  0  0  0  0  0  0  0  0  0  0  0
   -2.5960    5.8648   -3.1515 H   0  0  0  0  0  0  0  0  0  0  0  0
   -2.6479   12.3665   -4.5993 H   0  0  0  0  0  0  0  0  0  0  0  0
   -1.4805   11.6255   -5.7556 H   0  0  0  0  0  0  0  0  0  0  0  0
   -3.2269   11.4207   -5.9870 H   0  0  0  0  0  0  0  0  0  0  0  0
  1  2  2  0  0  0  0
  1 37  1  0  0  0  0
  2  3  1  0  0  0  0
  2  7  1  0  0  0  0
  3  4  2  0  0  0  0
  3 38  1  0  0  0  0
  4  5  1  0  0  0  0
  4 39  1  0  0  0  0
  5  6  2  0  0  0  0
  5 12  1  0  0  0  0
  6  1  1  0  0  0  0
  6 40  1  0  0  0  0
  7  8  1  0  0  0  0
  7 41  1  0  0  0  0
  8  9  1  0  0  0  0
  8 10  2  0  0  0  0
  9 11  1  0  0  0  0
 11 42  1  0  0  0  0
 11 43  1  0  0  0  0
 11 44  1  0  0  0  0
 12 13  2  0  0  0  0
 13 14  1  0  0  0  0
 14 15  2  0  0  0  0
 14 24  1  0  0  0  0
 15 16  1  0  0  0  0
 16 17  2  0  0  0  0
 16 18  1  0  0  0  0
 17 12  1  0  0  0  0
 18 19  1  0  0  0  0
 19 20  1  0  0  0  0
 19 45  1  0  0  0  0
 19 46  1  0  0  0  0
 20 21  1  0  0  0  0
 20 47  1  0  0  0  0
 20 48  1  0  0  0  0
 21 22  1  0  0  0  0
 22 23  1  0  0  0  0
 22 49  1  0  0  0  0
 22 50  1  0  0  0  0
 23 18  1  0  0  0  0
 23 51  1  0  0  0  0
 23 52  1  0  0  0  0
 24 25  1  0  0  0  0
 24 27  1  0  0  0  0
 25 26  2  0  0  0  0
 26 15  1  0  0  0  0
 26 53  1  0  0  0  0
 27 28  1  0  0  0  0
 27 54  1  0  0  0  0
 28 29  1  0  0  0  0
 28 55  1  0  0  0  0
 28 56  1  0  0  0  0
 29 30  1  0  0  0  0
 29 57  1  0  0  0  0
 29 58  1  0  0  0  0
 30 31  1  0  0  0  0
 30 33  1  0  0  0  0
 31 32  1  0  0  0  0
 31 59  1  0  0  0  0
 31 60  1  0  0  0  0
 32 27  1  0  0  0  0
 32 61  1  0  0  0  0
 32 62  1  0  0  0  0
 33 34  2  0  0  0  0
 33 35  1  0  0  0  0
 35 36  1  0  0  0  0
 36 63  1  0  0  0  0
 36 64  1  0  0  0  0
 36 65  1  0  0  0  0
M  END
>  <Mol_ID>
148

>  <Formula>
C24H29N7O5

>  <MolWeight>
495.53096

>  <Cat>
S1266

>  <Name>
WYE-354

>  <Synonyms>
N/A

>  <Target>
mTOR

>  <Form>
free base

>  <CAS>
1062169-56-5

>  <URL>
http://selleckchem.com/products/WYE-354.html

$$$$
