WYE-175768
 OpenBabel08302521443D

 44 46  0  0  0  0  0  0  0  0999 V2000
    1.4485    1.7633   -0.9040 C   0  0  0  0  0  0  0  0  0  0  0  0
    2.4490    0.5341   -0.0918 S   0  0  0  0  0  0  0  0  0  0  0  0
    0.4321    1.3749   -1.7869 C   0  0  0  0  0  0  0  0  0  0  0  0
    1.6171    3.1089   -0.5680 C   0  0  0  0  0  0  0  0  0  0  0  0
    3.7503    0.3003   -1.1529 N   0  0  0  0  0  0  0  0  0  0  0  0
    2.9213    1.0855    1.1581 O   0  0  0  0  0  0  0  0  0  0  0  0
    1.6985   -0.7015   -0.1161 O   0  0  0  0  0  0  0  0  0  0  0  0
   -0.3996    2.3438   -2.3579 C   0  0  0  0  0  0  0  0  0  0  0  0
    0.7924    4.0759   -1.1507 C   0  0  0  0  0  0  0  0  0  0  0  0
    4.8941    1.1433   -1.0434 C   0  0  0  0  0  0  0  0  0  0  0  0
   -0.2092    3.6978   -2.0526 C   0  0  0  0  0  0  0  0  0  0  0  0
   -1.4309    1.8929   -3.3348 C   0  0  0  0  0  0  0  0  0  0  0  0
    5.9385    0.8053   -0.1810 C   0  0  0  0  0  0  0  0  0  0  0  0
    4.9645    2.3197   -1.7823 C   0  0  0  0  0  0  0  0  0  0  0  0
   -2.5386    2.6649   -3.3877 O   0  0  0  0  0  0  0  0  0  0  0  0
   -1.2892    0.8962   -4.0140 O   0  0  0  0  0  0  0  0  0  0  0  0
    7.0468    1.6550   -0.0386 C   0  0  0  0  0  0  0  0  0  0  0  0
    6.0619    3.1752   -1.6231 C   0  0  0  0  0  0  0  0  0  0  0  0
    7.0971    2.8614   -0.7342 C   0  0  0  0  0  0  0  0  0  0  0  0
    8.0383    3.8406   -0.5660 O   0  0  0  0  0  0  0  0  0  0  0  0
    9.3552    3.4648   -0.1428 C   0  0  0  0  0  0  0  0  0  0  0  0
    9.5599    3.3639    1.3559 C   0  0  0  0  0  0  0  0  0  0  0  0
   10.5257    2.4748    1.8579 C   0  0  0  0  0  0  0  0  0  0  0  0
    8.8518    4.1632    2.2631 C   0  0  0  0  0  0  0  0  0  0  0  0
   10.7239    2.3338    3.2331 C   0  0  0  0  0  0  0  0  0  0  0  0
    9.0617    4.0313    3.6400 C   0  0  0  0  0  0  0  0  0  0  0  0
    9.9843    3.1055    4.1249 C   0  0  0  0  0  0  0  0  0  0  0  0
    0.2846    0.3213   -2.0249 H   0  0  0  0  0  0  0  0  0  0  0  0
    2.3840    3.4128    0.1417 H   0  0  0  0  0  0  0  0  0  0  0  0
    3.9325   -0.6997   -1.2432 H   0  0  0  0  0  0  0  0  0  0  0  0
    0.9370    5.1271   -0.9044 H   0  0  0  0  0  0  0  0  0  0  0  0
   -0.8044    4.4776   -2.5204 H   0  0  0  0  0  0  0  0  0  0  0  0
    5.8939   -0.1063    0.4092 H   0  0  0  0  0  0  0  0  0  0  0  0
    4.1809    2.5772   -2.4891 H   0  0  0  0  0  0  0  0  0  0  0  0
   -2.6254    3.3365   -2.6890 H   0  0  0  0  0  0  0  0  0  0  0  0
    7.8282    1.3655    0.6561 H   0  0  0  0  0  0  0  0  0  0  0  0
    6.1092    4.0976   -2.1976 H   0  0  0  0  0  0  0  0  0  0  0  0
    9.6644    2.5433   -0.6510 H   0  0  0  0  0  0  0  0  0  0  0  0
   10.0253    4.2563   -0.5022 H   0  0  0  0  0  0  0  0  0  0  0  0
   11.1279    1.8763    1.1777 H   0  0  0  0  0  0  0  0  0  0  0  0
    8.1235    4.8880    1.9053 H   0  0  0  0  0  0  0  0  0  0  0  0
   11.4535    1.6203    3.6079 H   0  0  0  0  0  0  0  0  0  0  0  0
    8.4995    4.6477    4.3372 H   0  0  0  0  0  0  0  0  0  0  0  0
   10.1304    2.9895    5.1960 H   0  0  0  0  0  0  0  0  0  0  0  0
  1  2  1  0  0  0  0
  1  3  2  0  0  0  0
  1  4  1  0  0  0  0
  2  5  1  0  0  0  0
  2  6  2  0  0  0  0
  2  7  2  0  0  0  0
  3  8  1  0  0  0  0
  3 28  1  0  0  0  0
  4  9  2  0  0  0  0
  4 29  1  0  0  0  0
  5 10  1  0  0  0  0
  5 30  1  0  0  0  0
  8 11  2  0  0  0  0
  8 12  1  0  0  0  0
  9 11  1  0  0  0  0
  9 31  1  0  0  0  0
 10 13  2  0  0  0  0
 10 14  1  0  0  0  0
 11 32  1  0  0  0  0
 12 15  1  0  0  0  0
 12 16  2  0  0  0  0
 13 17  1  0  0  0  0
 13 33  1  0  0  0  0
 14 18  2  0  0  0  0
 14 34  1  0  0  0  0
 15 35  1  0  0  0  0
 17 19  2  0  0  0  0
 17 36  1  0  0  0  0
 18 19  1  0  0  0  0
 18 37  1  0  0  0  0
 19 20  1  0  0  0  0
 20 21  1  0  0  0  0
 21 22  1  0  0  0  0
 21 38  1  0  0  0  0
 21 39  1  0  0  0  0
 22 23  2  0  0  0  0
 22 24  1  0  0  0  0
 23 25  1  0  0  0  0
 23 40  1  0  0  0  0
 24 26  2  0  0  0  0
 24 41  1  0  0  0  0
 25 27  2  0  0  0  0
 25 42  1  0  0  0  0
 26 27  1  0  0  0  0
 26 43  1  0  0  0  0
 27 44  1  0  0  0  0
M  END
>  <Mol_ID>
9159

>  <Formula>
C20H17NO5S

>  <MolWeight>
383.41768

>  <Cat>
P3230

>  <Name>
WYE-175768

>  <Synonyms>
N/A

>  <Target>
PPAR

>  <Form>
free base

>  <CAS>
956236-52-5

>  <URL>
N/A

$$$$
