WYE-176272
 OpenBabel08302521443D

 37 39  0  0  0  0  0  0  0  0999 V2000
   -0.0355   -0.4890    0.1989 C   0  0  0  0  0  0  0  0  0  0  0  0
    1.2320   -1.0993    0.4167 O   0  0  0  0  0  0  0  0  0  0  0  0
    2.4138   -0.3648    0.5436 C   0  0  0  0  0  0  0  0  0  0  0  0
    1.0945    1.6768    0.1744 C   0  0  0  0  0  0  0  0  0  0  0  0
   -0.1137    0.8996    0.0319 C   0  0  0  0  0  0  0  0  0  0  0  0
    2.2570    1.0884    0.4618 C   0  0  0  0  0  0  0  0  0  0  0  0
   -1.1798   -1.3068    0.1802 C   0  0  0  0  0  0  0  0  0  0  0  0
   -2.4304   -0.6859    0.0001 C   0  0  0  0  0  0  0  0  0  0  0  0
   -3.5488   -1.4834    0.0656 O   0  0  0  0  0  0  0  0  0  0  0  0
   -4.7098   -0.2456    1.8940 C   0  0  0  0  0  0  0  0  0  0  0  0
   -1.3504    1.4838   -0.2104 C   0  0  0  0  0  0  0  0  0  0  0  0
   -4.7595   -0.8455    0.4846 C   0  0  3  0  0  0  0  0  0  0  0  0
    3.5077   -0.8916    0.7031 O   0  0  0  0  0  0  0  0  0  0  0  0
   -2.4961    0.6955   -0.2370 C   0  0  0  0  0  0  0  0  0  0  0  0
   -3.9949   -0.5805    2.8269 O   0  0  0  0  0  0  0  0  0  0  0  0
    1.2222    3.1586    0.0945 C   0  0  0  0  0  0  0  0  0  0  0  0
   -5.5897    0.7687    2.0510 O   0  0  0  0  0  0  0  0  0  0  0  0
    3.3380    2.0870    0.6791 C   0  0  0  0  0  0  0  0  0  0  0  0
   -1.0384   -2.7930    0.3690 C   0  0  0  0  0  0  0  0  0  0  0  0
    2.7415    3.3266    0.0029 C   0  0  0  0  0  0  0  0  0  0  0  0
   -5.8675   -1.8910    0.4634 C   0  0  0  0  0  0  0  0  0  0  0  0
   -1.4470    2.5541   -0.3600 H   0  0  0  0  0  0  0  0  0  0  0  0
   -5.0368   -0.0702   -0.2385 H   0  0  0  0  0  0  0  0  0  0  0  0
   -3.4352    1.2024   -0.4390 H   0  0  0  0  0  0  0  0  0  0  0  0
    0.7333    3.5837   -0.7874 H   0  0  0  0  0  0  0  0  0  0  0  0
    0.8184    3.6314    0.9964 H   0  0  0  0  0  0  0  0  0  0  0  0
   -5.4446    1.0574    2.9777 H   0  0  0  0  0  0  0  0  0  0  0  0
    4.2955    1.8085    0.2335 H   0  0  0  0  0  0  0  0  0  0  0  0
    3.4758    2.2622    1.7528 H   0  0  0  0  0  0  0  0  0  0  0  0
   -0.4646   -3.2222   -0.4581 H   0  0  0  0  0  0  0  0  0  0  0  0
   -0.5244   -3.0085    1.3119 H   0  0  0  0  0  0  0  0  0  0  0  0
   -2.0031   -3.3081    0.4018 H   0  0  0  0  0  0  0  0  0  0  0  0
    3.0425    3.3455   -1.0534 H   0  0  0  0  0  0  0  0  0  0  0  0
    3.0819    4.2621    0.4570 H   0  0  0  0  0  0  0  0  0  0  0  0
   -5.9602   -2.3326   -0.5341 H   0  0  0  0  0  0  0  0  0  0  0  0
   -5.6523   -2.7071    1.1613 H   0  0  0  0  0  0  0  0  0  0  0  0
   -6.8312   -1.4500    0.7406 H   0  0  0  0  0  0  0  0  0  0  0  0
  2  1  1  0  0  0  0
  3  2  1  0  0  0  0
  3  6  1  0  0  0  0
  4  5  1  0  0  0  0
  5  1  2  0  0  0  0
  6  4  2  0  0  0  0
  7  1  1  0  0  0  0
  8  7  2  0  0  0  0
  9  8  1  0  0  0  0
 10 12  1  0  0  0  0
 11  5  1  0  0  0  0
 11 14  2  0  0  0  0
 11 22  1  0  0  0  0
 12  9  1  0  0  0  0
 12 23  1  0  0  0  0
 13  3  2  0  0  0  0
 14  8  1  0  0  0  0
 14 24  1  0  0  0  0
 15 10  2  0  0  0  0
 16  4  1  0  0  0  0
 16 25  1  0  0  0  0
 16 26  1  0  0  0  0
 17 10  1  0  0  0  0
 17 27  1  0  0  0  0
 18  6  1  0  0  0  0
 18 20  1  0  0  0  0
 18 28  1  0  0  0  0
 18 29  1  0  0  0  0
 19  7  1  0  0  0  0
 19 30  1  0  0  0  0
 19 31  1  0  0  0  0
 19 32  1  0  0  0  0
 20 16  1  0  0  0  0
 20 33  1  0  0  0  0
 20 34  1  0  0  0  0
 21 12  1  0  0  0  0
 21 35  1  0  0  0  0
 21 36  1  0  0  0  0
 21 37  1  0  0  0  0
M  END
>  <Mol_ID>
9177

>  <Formula>
C16H16O5

>  <MolWeight>
288.29524

>  <Cat>
P3249

>  <Name>
WYE-176272

>  <Synonyms>
N/A

>  <Target>
microbial heme oxygenase

>  <Form>
free base

>  <CAS>
307548-90-9

>  <URL>
N/A

$$$$
