WYE-176115
 OpenBabel08302521443D

 34 36  0  0  0  0  0  0  0  0999 V2000
   -2.7365   -0.5355    0.0897 C   0  0  0  0  0  0  0  0  0  0  0  0
   -4.1605   -0.4227    0.0672 C   0  0  0  0  0  0  0  0  0  0  0  0
   -1.8856    0.6924    0.0862 C   0  0  0  0  0  0  0  0  0  0  0  0
   -6.3136   -0.2152   -0.5754 C   0  0  0  0  0  0  0  0  0  0  0  0
   -5.0211   -0.3413   -1.0654 C   0  0  0  0  0  0  0  0  0  0  0  0
   -4.9724   -0.3446    1.1780 C   0  0  0  0  0  0  0  0  0  0  0  0
   -0.4230    0.4859    0.0665 C   0  0  0  0  0  0  0  0  0  0  0  0
   -6.2716   -0.2206    0.7950 O   0  0  0  0  0  0  0  0  0  0  0  0
   -2.0966   -1.7147    0.0840 C   0  0  0  0  0  0  0  0  0  0  0  0
    0.0738   -0.8149    0.0373 C   0  0  0  0  0  0  0  0  0  0  0  0
   -0.7381   -1.9194    0.0552 O   0  0  0  0  0  0  0  0  0  0  0  0
   -7.6043   -0.0885   -1.2273 C   0  0  0  0  0  0  0  0  0  0  0  0
    0.4587    1.5755    0.0688 C   0  0  0  0  0  0  0  0  0  0  0  0
    1.4499   -1.0366   -0.0055 C   0  0  0  0  0  0  0  0  0  0  0  0
   -2.3508    1.8266    0.0825 O   0  0  0  0  0  0  0  0  0  0  0  0
   -7.7988   -0.0665   -2.4320 O   0  0  0  0  0  0  0  0  0  0  0  0
    2.3209    0.0490   -0.0043 C   0  0  0  0  0  0  0  0  0  0  0  0
    1.8390    1.3550    0.0376 C   0  0  0  0  0  0  0  0  0  0  0  0
   -8.5980   -0.0083   -0.2869 O   0  0  0  0  0  0  0  0  0  0  0  0
   -4.7384   -0.3362    2.6349 C   0  0  0  0  0  0  0  0  0  0  0  0
    3.6576   -0.2143   -0.0421 O   0  0  0  0  0  0  0  0  0  0  0  0
   -9.9077    0.1090   -0.8413 C   0  0  0  0  0  0  0  0  0  0  0  0
   -4.7396   -0.3568   -2.1118 H   0  0  0  0  0  0  0  0  0  0  0  0
   -2.6066   -2.6706    0.0720 H   0  0  0  0  0  0  0  0  0  0  0  0
    0.0741    2.5930    0.0970 H   0  0  0  0  0  0  0  0  0  0  0  0
    1.8436   -2.0485   -0.0387 H   0  0  0  0  0  0  0  0  0  0  0  0
    2.5146    2.2053    0.0462 H   0  0  0  0  0  0  0  0  0  0  0  0
   -5.1372    0.5825    3.0759 H   0  0  0  0  0  0  0  0  0  0  0  0
   -5.2281   -1.1919    3.1084 H   0  0  0  0  0  0  0  0  0  0  0  0
   -3.6713   -0.3825    2.8666 H   0  0  0  0  0  0  0  0  0  0  0  0
    4.1473    0.6250   -0.0431 H   0  0  0  0  0  0  0  0  0  0  0  0
   -9.9936    1.0287   -1.4269 H   0  0  0  0  0  0  0  0  0  0  0  0
  -10.1442   -0.7647   -1.4553 H   0  0  0  0  0  0  0  0  0  0  0  0
  -10.6265    0.1557   -0.0179 H   0  0  0  0  0  0  0  0  0  0  0  0
  2  1  1  0  0  0  0
  3  1  1  0  0  0  0
  4  5  2  0  0  0  0
  5  2  1  0  0  0  0
  5 23  1  0  0  0  0
  6  2  2  0  0  0  0
  7  3  1  0  0  0  0
  8  6  1  0  0  0  0
  8  4  1  0  0  0  0
  9  1  2  0  0  0  0
  9 24  1  0  0  0  0
 10  7  2  0  0  0  0
 10 11  1  0  0  0  0
 11  9  1  0  0  0  0
 12  4  1  0  0  0  0
 13  7  1  0  0  0  0
 13 25  1  0  0  0  0
 14 10  1  0  0  0  0
 14 26  1  0  0  0  0
 15  3  2  0  0  0  0
 16 12  2  0  0  0  0
 17 14  2  0  0  0  0
 18 13  2  0  0  0  0
 18 17  1  0  0  0  0
 18 27  1  0  0  0  0
 19 12  1  0  0  0  0
 20  6  1  0  0  0  0
 20 28  1  0  0  0  0
 20 29  1  0  0  0  0
 20 30  1  0  0  0  0
 21 17  1  0  0  0  0
 21 31  1  0  0  0  0
 22 19  1  0  0  0  0
 22 32  1  0  0  0  0
 22 33  1  0  0  0  0
 22 34  1  0  0  0  0
M  END
>  <Mol_ID>
9167

>  <Formula>
C16H12O6

>  <MolWeight>
300.26288

>  <Cat>
P3239

>  <Name>
WYE-176115

>  <Synonyms>
N/A

>  <Target>
NS5B

>  <Form>
free base

>  <CAS>
73486-45-0

>  <URL>
N/A

$$$$
