WYE-122602
 OpenBabel08302521443D

 34 36  0  0  0  0  0  0  0  0999 V2000
   -0.0569    0.4812    2.3226 N   0  0  0  0  0  0  0  0  0  0  0  0
    1.1824    1.0071    2.7619 C   0  0  0  0  0  0  0  0  0  0  0  0
    2.1929    1.4026    1.8468 C   0  0  0  0  0  0  0  0  0  0  0  0
    3.3696    2.0146    2.3006 C   0  0  0  0  0  0  0  0  0  0  0  0
    3.5178    2.2531    3.6571 C   0  0  0  0  0  0  0  0  0  0  0  0
    2.5821    1.8355    4.5598 C   0  0  0  0  0  0  0  0  0  0  0  0
    1.4000    1.2117    4.1172 C   0  0  0  0  0  0  0  0  0  0  0  0
    4.6120    2.9316    4.1108 O   0  0  0  0  0  0  0  0  0  0  0  0
   -0.3701    0.1261    1.0094 C   0  0  0  0  0  0  0  0  0  0  0  0
    0.3901    0.0602    0.0475 O   0  0  0  0  0  0  0  0  0  0  0  0
   -1.7482   -0.3390    0.7626 C   0  0  0  0  0  0  0  0  0  0  0  0
   -2.8578    0.4154    1.1372 C   0  0  0  0  0  0  0  0  0  0  0  0
   -4.1318   -0.1073    0.8991 C   0  0  0  0  0  0  0  0  0  0  0  0
   -4.2291   -1.4674    0.5672 C   0  0  0  0  0  0  0  0  0  0  0  0
   -3.1282   -2.1570    0.0534 C   0  0  0  0  0  0  0  0  0  0  0  0
   -1.8974   -1.5425    0.0670 C   0  0  0  0  0  0  0  0  0  0  0  0
   -0.8848   -2.1489   -0.6249 O   0  0  0  0  0  0  0  0  0  0  0  0
   -5.4732   -2.0783    0.6545 C   0  0  0  0  0  0  0  0  0  0  0  0
   -6.6159   -1.3401    0.4154 C   0  0  0  0  0  0  0  0  0  0  0  0
   -6.5274    0.0413    0.5046 C   0  0  0  0  0  0  0  0  0  0  0  0
   -5.3186    0.6396    0.8954 C   0  0  0  0  0  0  0  0  0  0  0  0
   -0.7449    0.3116    3.0356 H   0  0  0  0  0  0  0  0  0  0  0  0
    2.1034    1.2487    0.7692 H   0  0  0  0  0  0  0  0  0  0  0  0
    4.0973    2.3263    1.5735 H   0  0  0  0  0  0  0  0  0  0  0  0
    2.7265    2.0104    5.6254 H   0  0  0  0  0  0  0  0  0  0  0  0
    0.6719    0.8908    4.8434 H   0  0  0  0  0  0  0  0  0  0  0  0
    5.1010    3.2953    3.3527 H   0  0  0  0  0  0  0  0  0  0  0  0
   -2.7242    1.4079    1.5757 H   0  0  0  0  0  0  0  0  0  0  0  0
   -3.2574   -3.1012   -0.4703 H   0  0  0  0  0  0  0  0  0  0  0  0
   -0.1554   -1.4918   -0.7288 H   0  0  0  0  0  0  0  0  0  0  0  0
   -5.5590   -3.0268    1.1861 H   0  0  0  0  0  0  0  0  0  0  0  0
   -7.5542   -1.8450    0.2187 H   0  0  0  0  0  0  0  0  0  0  0  0
   -7.4164    0.6408    0.3339 H   0  0  0  0  0  0  0  0  0  0  0  0
   -5.2993    1.7077    1.0818 H   0  0  0  0  0  0  0  0  0  0  0  0
  1  2  1  0  0  0  0
  1  9  1  0  0  0  0
  1 22  1  0  0  0  0
  2  3  2  0  0  0  0
  2  7  1  0  0  0  0
  3  4  1  0  0  0  0
  3 23  1  0  0  0  0
  4  5  2  0  0  0  0
  4 24  1  0  0  0  0
  5  6  1  0  0  0  0
  5  8  1  0  0  0  0
  6  7  2  0  0  0  0
  6 25  1  0  0  0  0
  7 26  1  0  0  0  0
  8 27  1  0  0  0  0
  9 10  2  0  0  0  0
  9 11  1  0  0  0  0
 11 12  2  0  0  0  0
 11 16  1  0  0  0  0
 12 13  1  0  0  0  0
 12 28  1  0  0  0  0
 13 14  2  0  0  0  0
 13 21  1  0  0  0  0
 14 15  1  0  0  0  0
 14 18  1  0  0  0  0
 15 16  2  0  0  0  0
 15 29  1  0  0  0  0
 16 17  1  0  0  0  0
 17 30  1  0  0  0  0
 18 19  2  0  0  0  0
 18 31  1  0  0  0  0
 19 20  1  0  0  0  0
 19 32  1  0  0  0  0
 20 21  2  0  0  0  0
 20 33  1  0  0  0  0
 21 34  1  0  0  0  0
M  END
>  <Mol_ID>
9147

>  <Formula>
C17H13NO3

>  <MolWeight>
279.29002

>  <Cat>
P3228

>  <Name>
WYE-122602

>  <Synonyms>
N/A

>  <Target>
Others

>  <Form>
free base

>  <CAS>
92595-45-4

>  <URL>
N/A

$$$$
