WYE-175779
 OpenBabel08302521443D

 37 38  0  0  0  0  0  0  0  0999 V2000
    0.9117    0.0466   -0.0767 S   0  0  0  0  0  0  0  0  0  0  0  0
    0.3576    0.8652   -1.5584 C   0  0  0  0  0  0  0  0  0  0  0  0
   -1.3006    2.1801   -2.7680 C   0  0  0  0  0  0  0  0  0  0  0  0
    0.3405   -1.5250   -0.2164 N   0  0  0  0  0  0  0  0  0  0  0  0
   -0.8714    1.5338   -1.5881 C   0  0  0  0  0  0  0  0  0  0  0  0
   -2.6258    2.8625   -2.7564 C   0  0  0  0  0  0  0  0  0  0  0  0
    0.1977    0.6369    1.0353 O   0  0  0  0  0  0  0  0  0  0  0  0
    2.3628    0.0195   -0.1012 O   0  0  0  0  0  0  0  0  0  0  0  0
   -0.4714    2.1768   -3.9110 C   0  0  0  0  0  0  0  0  0  0  0  0
   -2.9587    3.8512   -3.3808 O   0  0  0  0  0  0  0  0  0  0  0  0
    1.1941    0.8850   -2.6731 C   0  0  0  0  0  0  0  0  0  0  0  0
    0.7781    1.5310   -3.8369 C   0  0  0  0  0  0  0  0  0  0  0  0
    0.6996   -2.3441   -1.3124 C   0  0  0  0  0  0  0  0  0  0  0  0
   -3.5003    2.2206   -1.9596 O   0  0  0  0  0  0  0  0  0  0  0  0
    1.4281   -3.9347   -3.4995 C   0  0  0  0  0  0  0  0  0  0  0  0
    1.8267   -3.1606   -1.2375 C   0  0  0  0  0  0  0  0  0  0  0  0
   -0.0931   -2.3548   -2.4558 C   0  0  0  0  0  0  0  0  0  0  0  0
    2.1881   -3.9621   -2.3294 C   0  0  0  0  0  0  0  0  0  0  0  0
    0.2808   -3.1383   -3.5491 C   0  0  0  0  0  0  0  0  0  0  0  0
    1.6901   -4.6239   -4.6506 O   0  0  0  0  0  0  0  0  0  0  0  0
   -0.8265    2.7910   -5.2394 C   0  0  0  0  0  0  0  0  0  0  0  0
    2.8760   -5.4082   -4.6818 C   0  0  0  0  0  0  0  0  0  0  0  0
   -0.4698   -1.7616    0.3515 H   0  0  0  0  0  0  0  0  0  0  0  0
   -1.4941    1.5629   -0.6953 H   0  0  0  0  0  0  0  0  0  0  0  0
    2.1649    0.3941   -2.6498 H   0  0  0  0  0  0  0  0  0  0  0  0
    1.4393    1.5272   -4.7031 H   0  0  0  0  0  0  0  0  0  0  0  0
   -4.3263    2.7398   -2.0564 H   0  0  0  0  0  0  0  0  0  0  0  0
    2.4305   -3.1829   -0.3334 H   0  0  0  0  0  0  0  0  0  0  0  0
   -0.9907   -1.7471   -2.5193 H   0  0  0  0  0  0  0  0  0  0  0  0
    3.0676   -4.5907   -2.2342 H   0  0  0  0  0  0  0  0  0  0  0  0
   -0.3245   -3.1243   -4.4522 H   0  0  0  0  0  0  0  0  0  0  0  0
   -0.0786    3.5447   -5.5126 H   0  0  0  0  0  0  0  0  0  0  0  0
   -0.8339    2.0111   -6.0093 H   0  0  0  0  0  0  0  0  0  0  0  0
   -1.8031    3.2722   -5.2719 H   0  0  0  0  0  0  0  0  0  0  0  0
    3.7638   -4.8088   -4.4541 H   0  0  0  0  0  0  0  0  0  0  0  0
    2.7902   -6.2633   -4.0039 H   0  0  0  0  0  0  0  0  0  0  0  0
    2.9936   -5.7959   -5.6987 H   0  0  0  0  0  0  0  0  0  0  0  0
  2  1  1  0  0  0  0
  3  5  2  0  0  0  0
  4  1  1  0  0  0  0
  4 23  1  0  0  0  0
  5  2  1  0  0  0  0
  5 24  1  0  0  0  0
  6  3  1  0  0  0  0
  7  1  2  0  0  0  0
  8  1  2  0  0  0  0
  9  3  1  0  0  0  0
  9 12  2  0  0  0  0
 10  6  2  0  0  0  0
 11  2  2  0  0  0  0
 11 25  1  0  0  0  0
 12 11  1  0  0  0  0
 12 26  1  0  0  0  0
 13  4  1  0  0  0  0
 14  6  1  0  0  0  0
 14 27  1  0  0  0  0
 15 19  2  0  0  0  0
 16 13  1  0  0  0  0
 16 28  1  0  0  0  0
 17 13  2  0  0  0  0
 17 29  1  0  0  0  0
 18 16  2  0  0  0  0
 18 15  1  0  0  0  0
 18 30  1  0  0  0  0
 19 17  1  0  0  0  0
 19 31  1  0  0  0  0
 20 15  1  0  0  0  0
 21  9  1  0  0  0  0
 21 32  1  0  0  0  0
 21 33  1  0  0  0  0
 21 34  1  0  0  0  0
 22 20  1  0  0  0  0
 22 35  1  0  0  0  0
 22 36  1  0  0  0  0
 22 37  1  0  0  0  0
M  END
>  <Mol_ID>
9160

>  <Formula>
C15H15NO5S

>  <MolWeight>
321.3483

>  <Cat>
P3231

>  <Name>
WYE-175779

>  <Synonyms>
N/A

>  <Target>
mitochondrial citrate transport protein

>  <Form>
free base

>  <CAS>
956239-87-5

>  <URL>
N/A

$$$$
