WYE-175782
 OpenBabel08302521443D

 37 39  0  0  0  0  0  0  0  0999 V2000
    2.4809    0.5646    0.0425 N   0  0  0  0  0  0  0  0  0  0  0  0
    3.9172    0.9963   -0.7252 S   0  0  0  0  0  0  0  0  0  0  0  0
    1.2672    1.3589   -0.2621 C   0  0  0  0  0  0  0  0  0  0  0  0
    2.2801   -0.8369    0.4694 C   0  0  0  0  0  0  0  0  0  0  0  0
    3.8902    0.0345   -2.2284 C   0  0  0  0  0  0  0  0  0  0  0  0
    3.8373    2.3894   -1.1062 O   0  0  0  0  0  0  0  0  0  0  0  0
    5.0219    0.4982    0.0667 O   0  0  0  0  0  0  0  0  0  0  0  0
   -0.0519    0.6514   -0.0340 C   0  0  0  0  0  0  0  0  0  0  0  0
    1.1634   -1.5073   -0.3327 C   0  0  0  0  0  0  0  0  0  0  0  0
    3.2903    0.5754   -3.3716 C   0  0  0  0  0  0  0  0  0  0  0  0
    4.4956   -1.2238   -2.2733 C   0  0  0  0  0  0  0  0  0  0  0  0
   -0.1172   -0.7498   -0.1145 C   0  0  0  0  0  0  0  0  0  0  0  0
   -1.2317    1.3854    0.1454 C   0  0  0  0  0  0  0  0  0  0  0  0
    3.1963   -0.1884   -4.5454 C   0  0  0  0  0  0  0  0  0  0  0  0
    4.4530   -1.9594   -3.4626 C   0  0  0  0  0  0  0  0  0  0  0  0
   -1.3507   -1.4014   -0.0224 C   0  0  0  0  0  0  0  0  0  0  0  0
   -2.4583    0.7294    0.2531 C   0  0  0  0  0  0  0  0  0  0  0  0
    3.7842   -1.4580   -4.5865 C   0  0  0  0  0  0  0  0  0  0  0  0
    2.3731    0.4027   -5.6395 C   0  0  0  0  0  0  0  0  0  0  0  0
   -2.5171   -0.6607    0.1683 C   0  0  0  0  0  0  0  0  0  0  0  0
    2.7126    0.0320   -6.8898 O   0  0  0  0  0  0  0  0  0  0  0  0
    1.4720    1.1834   -5.4112 O   0  0  0  0  0  0  0  0  0  0  0  0
    1.3008    2.2652    0.3563 H   0  0  0  0  0  0  0  0  0  0  0  0
    1.2667    1.6599   -1.3145 H   0  0  0  0  0  0  0  0  0  0  0  0
    3.2014   -1.4194    0.3618 H   0  0  0  0  0  0  0  0  0  0  0  0
    2.0416   -0.8393    1.5385 H   0  0  0  0  0  0  0  0  0  0  0  0
    1.3943   -1.5085   -1.4041 H   0  0  0  0  0  0  0  0  0  0  0  0
    1.0574   -2.5483   -0.0090 H   0  0  0  0  0  0  0  0  0  0  0  0
    2.8898    1.5841   -3.3517 H   0  0  0  0  0  0  0  0  0  0  0  0
    4.9995   -1.6333   -1.3979 H   0  0  0  0  0  0  0  0  0  0  0  0
   -1.2045    2.4722    0.1825 H   0  0  0  0  0  0  0  0  0  0  0  0
    4.9293   -2.9399   -3.4981 H   0  0  0  0  0  0  0  0  0  0  0  0
   -1.4127   -2.4842   -0.0987 H   0  0  0  0  0  0  0  0  0  0  0  0
   -3.3712    1.3048    0.3864 H   0  0  0  0  0  0  0  0  0  0  0  0
    3.7252   -2.0908   -5.4695 H   0  0  0  0  0  0  0  0  0  0  0  0
   -3.4760   -1.1675    0.2427 H   0  0  0  0  0  0  0  0  0  0  0  0
    3.5006   -0.5190   -6.9944 H   0  0  0  0  0  0  0  0  0  0  0  0
  1  2  1  0  0  0  0
  1  3  1  0  0  0  0
  1  4  1  0  0  0  0
  2  5  1  0  0  0  0
  2  6  2  0  0  0  0
  2  7  2  0  0  0  0
  3  8  1  0  0  0  0
  3 23  1  0  0  0  0
  3 24  1  0  0  0  0
  4  9  1  0  0  0  0
  4 25  1  0  0  0  0
  4 26  1  0  0  0  0
  5 10  2  0  0  0  0
  5 11  1  0  0  0  0
  8 12  2  0  0  0  0
  8 13  1  0  0  0  0
  9 12  1  0  0  0  0
  9 27  1  0  0  0  0
  9 28  1  0  0  0  0
 10 14  1  0  0  0  0
 10 29  1  0  0  0  0
 11 15  2  0  0  0  0
 11 30  1  0  0  0  0
 12 16  1  0  0  0  0
 13 17  2  0  0  0  0
 13 31  1  0  0  0  0
 14 18  2  0  0  0  0
 14 19  1  0  0  0  0
 15 18  1  0  0  0  0
 15 32  1  0  0  0  0
 16 20  2  0  0  0  0
 16 33  1  0  0  0  0
 17 20  1  0  0  0  0
 17 34  1  0  0  0  0
 18 35  1  0  0  0  0
 19 21  1  0  0  0  0
 19 22  2  0  0  0  0
 20 36  1  0  0  0  0
 21 37  1  0  0  0  0
M  END
>  <Mol_ID>
9161

>  <Formula>
C16H14ClNO4S

>  <MolWeight>
351.80466

>  <Cat>
P3232

>  <Name>
WYE-175782

>  <Synonyms>
N/A

>  <Target>
Others

>  <Form>
free base

>  <CAS>
956256-67-0

>  <URL>
N/A

$$$$
