WYE-179397
 OpenBabel08302521443D

 42 44  0  0  0  0  0  0  0  0999 V2000
   -1.1490   -0.5466   -3.1366 N   0  3  0  0  0  0  0  0  0  0  0  0
   -1.1141    0.5437   -2.1472 C   0  0  0  0  0  0  0  0  0  0  0  0
   -2.8145    1.2745    1.1517 C   0  0  0  0  0  0  0  0  0  0  0  0
   -4.1158    0.8339    0.9032 N   0  0  0  0  0  0  0  0  0  0  0  0
   -1.8215    0.3519   -0.9476 C   0  0  0  0  0  0  0  0  0  0  0  0
   -1.9040    1.3900   -0.0158 C   0  0  0  0  0  0  0  0  0  0  0  0
   -6.1303    2.7331    1.0334 N   0  0  0  0  0  0  0  0  0  0  0  0
   -0.4844    1.7774   -2.4229 C   0  0  0  0  0  0  0  0  0  0  0  0
   -1.6967   -1.6079   -2.8020 O   0  5  0  0  0  0  0  0  0  0  0  0
   -0.6778   -0.3385   -4.2664 O   0  0  0  0  0  0  0  0  0  0  0  0
   -5.0339    0.7041    2.0292 C   0  0  0  0  0  0  0  0  0  0  0  0
   -4.8036    1.1023   -0.3714 C   0  0  0  0  0  0  0  0  0  0  0  0
   -6.0741    1.9618   -0.2164 C   0  0  0  0  0  0  0  0  0  0  0  0
   -5.7804    2.0240    2.2911 C   0  0  0  0  0  0  0  0  0  0  0  0
   -2.3871    1.5621    2.2655 O   0  0  0  0  0  0  0  0  0  0  0  0
   -5.8284    4.0940    1.0397 C   0  0  0  0  0  0  0  0  0  0  0  0
   -1.1898    2.5697   -0.2163 C   0  0  0  0  0  0  0  0  0  0  0  0
   -0.4742    2.7479   -1.4050 C   0  0  0  0  0  0  0  0  0  0  0  0
    0.3053    2.0284   -3.5559 N   0  0  0  0  0  0  0  0  0  0  0  0
   -6.4902    4.9341    1.9513 C   0  0  0  0  0  0  0  0  0  0  0  0
   -4.8803    4.6794    0.1920 C   0  0  0  0  0  0  0  0  0  0  0  0
   -4.6018    6.0503    0.2551 C   0  0  0  0  0  0  0  0  0  0  0  0
   -6.2269    6.3040    2.0099 C   0  0  0  0  0  0  0  0  0  0  0  0
   -5.2790    6.8631    1.1610 C   0  0  0  0  0  0  0  0  0  0  0  0
   -2.3447   -0.5825   -0.7430 H   0  0  0  0  0  0  0  0  0  0  0  0
   -4.4994    0.3821    2.9322 H   0  0  0  0  0  0  0  0  0  0  0  0
   -5.7492   -0.0909    1.7778 H   0  0  0  0  0  0  0  0  0  0  0  0
   -4.1432    1.5952   -1.0859 H   0  0  0  0  0  0  0  0  0  0  0  0
   -5.0748    0.1280   -0.7979 H   0  0  0  0  0  0  0  0  0  0  0  0
   -6.2045    2.5957   -1.1029 H   0  0  0  0  0  0  0  0  0  0  0  0
   -6.9414    1.2899   -0.2186 H   0  0  0  0  0  0  0  0  0  0  0  0
   -5.1443    2.6500    2.9304 H   0  0  0  0  0  0  0  0  0  0  0  0
   -6.6996    1.8186    2.8517 H   0  0  0  0  0  0  0  0  0  0  0  0
   -1.2082    3.3565    0.5345 H   0  0  0  0  0  0  0  0  0  0  0  0
    0.0844    3.6725   -1.5418 H   0  0  0  0  0  0  0  0  0  0  0  0
    0.3660    3.0045   -3.8308 H   0  0  0  0  0  0  0  0  0  0  0  0
    0.0971    1.4189   -4.3533 H   0  0  0  0  0  0  0  0  0  0  0  0
   -7.2427    4.5142    2.6147 H   0  0  0  0  0  0  0  0  0  0  0  0
   -4.3150    4.0737   -0.5078 H   0  0  0  0  0  0  0  0  0  0  0  0
   -3.8501    6.4817   -0.4004 H   0  0  0  0  0  0  0  0  0  0  0  0
   -6.7642    6.9281    2.7189 H   0  0  0  0  0  0  0  0  0  0  0  0
   -5.0662    7.9276    1.2074 H   0  0  0  0  0  0  0  0  0  0  0  0
  2  1  1  0  0  0  0
  3  6  1  0  0  0  0
  4  3  1  0  0  0  0
  5  2  2  0  0  0  0
  5 25  1  0  0  0  0
  6  5  1  0  0  0  0
  6 17  2  0  0  0  0
  7 13  1  0  0  0  0
  7 14  1  0  0  0  0
  8  2  1  0  0  0  0
  9  1  1  0  0  0  0
 10  1  2  0  0  0  0
 11  4  1  0  0  0  0
 11 26  1  0  0  0  0
 11 27  1  0  0  0  0
 12  4  1  0  0  0  0
 12 28  1  0  0  0  0
 12 29  1  0  0  0  0
 13 12  1  0  0  0  0
 13 30  1  0  0  0  0
 13 31  1  0  0  0  0
 14 11  1  0  0  0  0
 14 32  1  0  0  0  0
 14 33  1  0  0  0  0
 15  3  2  0  0  0  0
 16  7  1  0  0  0  0
 17 18  1  0  0  0  0
 17 34  1  0  0  0  0
 18  8  2  0  0  0  0
 18 35  1  0  0  0  0
 19  8  1  0  0  0  0
 19 36  1  0  0  0  0
 19 37  1  0  0  0  0
 20 16  2  0  0  0  0
 20 38  1  0  0  0  0
 21 16  1  0  0  0  0
 21 39  1  0  0  0  0
 22 21  2  0  0  0  0
 22 40  1  0  0  0  0
 23 20  1  0  0  0  0
 23 41  1  0  0  0  0
 24 22  1  0  0  0  0
 24 23  2  0  0  0  0
 24 42  1  0  0  0  0
M  CHG  2   1   1   9  -1
M  END
>  <Mol_ID>
9179

>  <Formula>
C17H18N4O3

>  <MolWeight>
326.34982

>  <Cat>
P3251

>  <Name>
WYE-179397

>  <Synonyms>
N/A

>  <Target>
Anti-infection

>  <Form>
free base

>  <CAS>
89790-87-4

>  <URL>
N/A

$$$$
