WYE-175827
 OpenBabel08302521443D

 26 27  0  0  0  0  0  0  0  0999 V2000
   -1.1111   -0.2631    0.6977 S   0  0  0  0  0  0  0  0  0  0  0  0
   -1.6832    0.7748   -0.6364 C   0  0  0  0  0  0  0  0  0  0  0  0
    0.3563    0.3469    1.2788 N   0  0  0  0  0  0  0  0  0  0  0  0
    0.3078    1.5967    1.9744 C   0  0  0  0  0  0  0  0  0  0  0  0
   -0.6393    0.9188   -1.9877 S   0  0  0  0  0  0  0  0  0  0  0  0
   -0.8147   -1.5334    0.0636 O   0  0  0  0  0  0  0  0  0  0  0  0
   -2.1361   -0.1550    1.7129 O   0  0  0  0  0  0  0  0  0  0  0  0
   -2.8516    1.4893   -0.8229 C   0  0  0  0  0  0  0  0  0  0  0  0
    0.6990    2.7899    1.3366 C   0  0  0  0  0  0  0  0  0  0  0  0
   -1.7436    1.9290   -2.8165 C   0  0  0  0  0  0  0  0  0  0  0  0
   -2.8898    2.1497   -2.0857 C   0  0  0  0  0  0  0  0  0  0  0  0
    1.3442    2.7892    0.0845 N   0  0  0  0  0  0  0  0  0  0  0  0
   -0.1801    1.6123    3.2834 C   0  0  0  0  0  0  0  0  0  0  0  0
    0.6538    3.9784    2.0760 C   0  0  0  0  0  0  0  0  0  0  0  0
   -0.2614    2.8126    3.9853 C   0  0  0  0  0  0  0  0  0  0  0  0
    0.1523    3.9958    3.3807 C   0  0  0  0  0  0  0  0  0  0  0  0
    1.1077    0.2724    0.5953 H   0  0  0  0  0  0  0  0  0  0  0  0
   -3.6481    1.5141   -0.0873 H   0  0  0  0  0  0  0  0  0  0  0  0
   -1.5068    2.3013   -3.8044 H   0  0  0  0  0  0  0  0  0  0  0  0
   -3.7198    2.7485   -2.4442 H   0  0  0  0  0  0  0  0  0  0  0  0
    1.3515    3.7035   -0.3596 H   0  0  0  0  0  0  0  0  0  0  0  0
    1.0115    2.0777   -0.5555 H   0  0  0  0  0  0  0  0  0  0  0  0
   -0.4837    0.6865    3.7661 H   0  0  0  0  0  0  0  0  0  0  0  0
    1.0036    4.9100    1.6385 H   0  0  0  0  0  0  0  0  0  0  0  0
   -0.6353    2.8192    5.0059 H   0  0  0  0  0  0  0  0  0  0  0  0
    0.1006    4.9327    3.9298 H   0  0  0  0  0  0  0  0  0  0  0  0
  2  1  1  0  0  0  0
  3  1  1  0  0  0  0
  3 17  1  0  0  0  0
  4  3  1  0  0  0  0
  5  2  1  0  0  0  0
  6  1  2  0  0  0  0
  7  1  2  0  0  0  0
  8  2  2  0  0  0  0
  8 18  1  0  0  0  0
  9  4  2  0  0  0  0
 10  5  1  0  0  0  0
 10 11  2  0  0  0  0
 10 19  1  0  0  0  0
 11  8  1  0  0  0  0
 11 20  1  0  0  0  0
 12  9  1  0  0  0  0
 12 21  1  0  0  0  0
 12 22  1  0  0  0  0
 13  4  1  0  0  0  0
 13 23  1  0  0  0  0
 14  9  1  0  0  0  0
 14 24  1  0  0  0  0
 15 13  2  0  0  0  0
 15 16  1  0  0  0  0
 15 25  1  0  0  0  0
 16 14  2  0  0  0  0
 16 26  1  0  0  0  0
M  END
>  <Mol_ID>
9163

>  <Formula>
C10H10N2O2S2

>  <MolWeight>
254.3286

>  <Cat>
P3234

>  <Name>
WYE-175827

>  <Synonyms>
N/A

>  <Target>
IL-8 receptor,Gro-¦Á

>  <Form>
free base

>  <CAS>
182499-85-0

>  <URL>
N/A

$$$$
