WYE-175819
 OpenBabel08302521443D

 38 40  0  0  0  0  0  0  0  0999 V2000
   -2.3682    0.5572    0.0521 C   0  0  0  0  0  0  0  0  0  0  0  0
   -3.6066    1.3656    0.0085 C   0  0  0  0  0  0  0  0  0  0  0  0
   -1.2043    1.2409    0.0060 N   0  0  0  0  0  0  0  0  0  0  0  0
   -2.3870   -0.8278    0.0753 C   0  0  0  0  0  0  0  0  0  0  0  0
   -3.6312    2.6101   -0.6564 C   0  0  0  0  0  0  0  0  0  0  0  0
   -4.8094    0.9122    0.5690 C   0  0  0  0  0  0  0  0  0  0  0  0
   -0.0343    0.5779    0.0041 C   0  0  0  0  0  0  0  0  0  0  0  0
   -1.1772   -1.5288    0.0269 C   0  0  0  0  0  0  0  0  0  0  0  0
   -4.8130    3.3555   -0.8166 C   0  0  0  0  0  0  0  0  0  0  0  0
   -5.9893    1.6367    0.4174 C   0  0  0  0  0  0  0  0  0  0  0  0
    0.0528   -0.8286    0.0050 C   0  0  0  0  0  0  0  0  0  0  0  0
    1.1327    1.3308   -0.0029 C   0  0  0  0  0  0  0  0  0  0  0  0
   -1.2365   -3.0163    0.0562 C   0  0  0  0  0  0  0  0  0  0  0  0
   -6.0055    2.8525   -0.2709 C   0  0  0  0  0  0  0  0  0  0  0  0
   -4.8745    4.5292   -1.5170 O   0  0  0  0  0  0  0  0  0  0  0  0
    1.3455   -1.4210   -0.0199 C   0  0  0  0  0  0  0  0  0  0  0  0
    2.3968    0.7388   -0.0115 C   0  0  0  0  0  0  0  0  0  0  0  0
   -2.2670   -3.5400   -0.6442 O   0  0  0  0  0  0  0  0  0  0  0  0
   -0.4415   -3.7159    0.6617 O   0  0  0  0  0  0  0  0  0  0  0  0
   -7.2652    3.3836   -0.3793 O   0  0  0  0  0  0  0  0  0  0  0  0
   -3.6796    5.0216   -2.1100 C   0  0  0  0  0  0  0  0  0  0  0  0
    2.5028   -0.6420   -0.0215 C   0  0  0  0  0  0  0  0  0  0  0  0
   -7.3677    4.7987   -0.4265 C   0  0  0  0  0  0  0  0  0  0  0  0
   -3.3307   -1.3588    0.1295 H   0  0  0  0  0  0  0  0  0  0  0  0
   -2.6948    2.9682   -1.0769 H   0  0  0  0  0  0  0  0  0  0  0  0
   -4.8535   -0.0167    1.1326 H   0  0  0  0  0  0  0  0  0  0  0  0
   -6.9157    1.2504    0.8399 H   0  0  0  0  0  0  0  0  0  0  0  0
    1.0580    2.4160    0.0052 H   0  0  0  0  0  0  0  0  0  0  0  0
    1.4658   -2.5018   -0.0256 H   0  0  0  0  0  0  0  0  0  0  0  0
    3.2898    1.3593   -0.0071 H   0  0  0  0  0  0  0  0  0  0  0  0
   -2.7620   -2.9274   -1.2176 H   0  0  0  0  0  0  0  0  0  0  0  0
   -2.9378    5.2771   -1.3463 H   0  0  0  0  0  0  0  0  0  0  0  0
   -3.2747    4.3114   -2.8384 H   0  0  0  0  0  0  0  0  0  0  0  0
   -3.9304    5.9395   -2.6502 H   0  0  0  0  0  0  0  0  0  0  0  0
    3.4799   -1.1191   -0.0233 H   0  0  0  0  0  0  0  0  0  0  0  0
   -6.7479    5.2769    0.3395 H   0  0  0  0  0  0  0  0  0  0  0  0
   -7.1442    5.1800   -1.4270 H   0  0  0  0  0  0  0  0  0  0  0  0
   -8.4109    5.0565   -0.2174 H   0  0  0  0  0  0  0  0  0  0  0  0
  1  2  1  0  0  0  0
  1  3  2  0  0  0  0
  1  4  1  0  0  0  0
  2  5  2  0  0  0  0
  2  6  1  0  0  0  0
  3  7  1  0  0  0  0
  4  8  2  0  0  0  0
  4 24  1  0  0  0  0
  5  9  1  0  0  0  0
  5 25  1  0  0  0  0
  6 10  2  0  0  0  0
  6 26  1  0  0  0  0
  7 11  2  0  0  0  0
  7 12  1  0  0  0  0
  8 13  1  0  0  0  0
  8 11  1  0  0  0  0
  9 14  2  0  0  0  0
  9 15  1  0  0  0  0
 10 14  1  0  0  0  0
 10 27  1  0  0  0  0
 11 16  1  0  0  0  0
 12 17  2  0  0  0  0
 12 28  1  0  0  0  0
 13 18  1  0  0  0  0
 13 19  2  0  0  0  0
 14 20  1  0  0  0  0
 15 21  1  0  0  0  0
 16 22  2  0  0  0  0
 16 29  1  0  0  0  0
 17 22  1  0  0  0  0
 17 30  1  0  0  0  0
 18 31  1  0  0  0  0
 20 23  1  0  0  0  0
 21 32  1  0  0  0  0
 21 33  1  0  0  0  0
 21 34  1  0  0  0  0
 22 35  1  0  0  0  0
 23 36  1  0  0  0  0
 23 37  1  0  0  0  0
 23 38  1  0  0  0  0
M  END
>  <Mol_ID>
9162

>  <Formula>
C18H15NO4

>  <MolWeight>
309.316

>  <Cat>
P3233

>  <Name>
WYE-175819

>  <Synonyms>
N/A

>  <Target>
PPAR¦Á

>  <Form>
free base

>  <CAS>
956262-49-0

>  <URL>
N/A

$$$$
