WYE-176182
 OpenBabel08302521443D

 32 33  0  0  0  0  0  0  0  0999 V2000
    1.0381   -0.0152    0.0999 S   0  0  0  0  0  0  0  0  0  0  0  0
    1.9316   -4.9342   -1.4360 N   0  3  0  0  0  0  0  0  0  0  0  0
    0.5511   -1.5090   -0.7432 C   0  0  0  0  0  0  0  0  0  0  0  0
    0.4675   -0.2342    1.6609 N   0  0  0  0  0  0  0  0  0  0  0  0
    1.0403   -3.7666   -1.4347 C   0  0  0  0  0  0  0  0  0  0  0  0
    1.4310   -2.5973   -0.7715 C   0  0  0  0  0  0  0  0  0  0  0  0
    2.2654   -4.6213    4.8132 C   0  0  0  0  0  0  0  0  0  0  0  0
    0.2635    1.0691   -0.4655 O   0  0  0  0  0  0  0  0  0  0  0  0
    2.4839    0.0255    0.1208 O   0  0  0  0  0  0  0  0  0  0  0  0
    3.0058   -4.8374   -0.8278 O   0  5  0  0  0  0  0  0  0  0  0  0
    1.5502   -5.9494   -2.0355 O   0  0  0  0  0  0  0  0  0  0  0  0
    1.8098   -3.4429    4.0335 C   0  0  0  0  0  0  0  0  0  0  0  0
    1.6968   -5.6939    4.8751 O   0  0  0  0  0  0  0  0  0  0  0  0
    0.9149   -1.3084    2.4644 C   0  0  0  0  0  0  0  0  0  0  0  0
    0.6406   -3.5682    3.2720 C   0  0  0  0  0  0  0  0  0  0  0  0
    2.5121   -2.2319    4.0277 C   0  0  0  0  0  0  0  0  0  0  0  0
    3.4234   -4.4009    5.4609 O   0  0  0  0  0  0  0  0  0  0  0  0
    2.0672   -1.1667    3.2359 C   0  0  0  0  0  0  0  0  0  0  0  0
    0.1882   -2.4963    2.4980 C   0  0  0  0  0  0  0  0  0  0  0  0
   -0.6782   -1.5653   -1.4097 C   0  0  0  0  0  0  0  0  0  0  0  0
   -0.2003   -3.8406   -2.0875 C   0  0  0  0  0  0  0  0  0  0  0  0
   -1.0526   -2.7333   -2.0785 C   0  0  0  0  0  0  0  0  0  0  0  0
   -0.3729    0.2805    1.9131 H   0  0  0  0  0  0  0  0  0  0  0  0
    2.3969   -2.5293   -0.2735 H   0  0  0  0  0  0  0  0  0  0  0  0
    0.0817   -4.5028    3.2770 H   0  0  0  0  0  0  0  0  0  0  0  0
    3.4114   -2.1082    4.6281 H   0  0  0  0  0  0  0  0  0  0  0  0
    3.6212   -5.2592    5.8923 H   0  0  0  0  0  0  0  0  0  0  0  0
    2.6244   -0.2317    3.2300 H   0  0  0  0  0  0  0  0  0  0  0  0
   -0.7225   -2.6094    1.9140 H   0  0  0  0  0  0  0  0  0  0  0  0
   -1.3471   -0.7057   -1.4197 H   0  0  0  0  0  0  0  0  0  0  0  0
   -0.5115   -4.7447   -2.6089 H   0  0  0  0  0  0  0  0  0  0  0  0
   -2.0083   -2.7814   -2.5985 H   0  0  0  0  0  0  0  0  0  0  0  0
  2  5  1  0  0  0  0
  3  1  1  0  0  0  0
  4  1  1  0  0  0  0
  4 23  1  0  0  0  0
  5  6  2  0  0  0  0
  6  3  1  0  0  0  0
  6 24  1  0  0  0  0
  7 12  1  0  0  0  0
  8  1  2  0  0  0  0
  9  1  2  0  0  0  0
 10  2  1  0  0  0  0
 11  2  2  0  0  0  0
 12 16  2  0  0  0  0
 13  7  2  0  0  0  0
 14  4  1  0  0  0  0
 15 19  2  0  0  0  0
 15 12  1  0  0  0  0
 15 25  1  0  0  0  0
 16 18  1  0  0  0  0
 16 26  1  0  0  0  0
 17  7  1  0  0  0  0
 17 27  1  0  0  0  0
 18 14  2  0  0  0  0
 18 28  1  0  0  0  0
 19 14  1  0  0  0  0
 19 29  1  0  0  0  0
 20  3  2  0  0  0  0
 20 30  1  0  0  0  0
 21  5  1  0  0  0  0
 21 22  2  0  0  0  0
 21 31  1  0  0  0  0
 22 20  1  0  0  0  0
 22 32  1  0  0  0  0
M  CHG  2   2   1  10  -1
M  END
>  <Mol_ID>
9168

>  <Formula>
C13H10N2O6S

>  <MolWeight>
322.2933

>  <Cat>
P3240

>  <Name>
WYE-176182

>  <Synonyms>
N/A

>  <Target>
ASBT,PPAR

>  <Form>
free base

>  <CAS>
59923-19-2

>  <URL>
N/A

$$$$
