WYE-176244
 OpenBabel08302521443D

 35 37  0  0  0  0  0  0  0  0999 V2000
   -8.4351    2.2336   -0.2779 C   0  0  0  0  0  0  0  0  0  0  0  0
   -9.5394    1.5711    0.2639 C   0  0  0  0  0  0  0  0  0  0  0  0
   -7.2974    1.4612   -0.4513 N   0  0  0  0  0  0  0  0  0  0  0  0
   -8.5631    3.6022   -0.6002 C   0  0  0  0  0  0  0  0  0  0  0  0
   -9.1201   -0.0761    0.5327 S   0  0  0  0  0  0  0  0  0  0  0  0
  -10.7581    2.2265    0.5071 C   0  0  0  0  0  0  0  0  0  0  0  0
   -7.5500    0.2295   -0.0703 C   0  0  0  0  0  0  0  0  0  0  0  0
   -9.7713    4.2631   -0.3678 C   0  0  0  0  0  0  0  0  0  0  0  0
  -10.8538    3.5837    0.1817 C   0  0  0  0  0  0  0  0  0  0  0  0
   -6.3475   -1.0345   -0.2024 S   0  0  0  0  0  0  0  0  0  0  0  0
   -4.8231   -0.0584   -0.0946 C   0  0  0  0  0  0  0  0  0  0  0  0
   -4.6993    0.6014    1.2714 C   0  0  0  0  0  0  0  0  0  0  0  0
   -4.6524    1.9884    1.2160 N   0  0  0  0  0  0  0  0  0  0  0  0
   -4.6543   -0.0749    2.2969 O   0  0  0  0  0  0  0  0  0  0  0  0
   -4.5202    2.8664    2.3129 C   0  0  0  0  0  0  0  0  0  0  0  0
   -4.1473    2.4511    3.5929 C   0  0  0  0  0  0  0  0  0  0  0  0
   -4.7718    4.2274    2.0930 C   0  0  0  0  0  0  0  0  0  0  0  0
   -4.0718    3.3671    4.6479 C   0  0  0  0  0  0  0  0  0  0  0  0
   -4.6988    5.1505    3.1465 C   0  0  0  0  0  0  0  0  0  0  0  0
   -4.3678    4.7152    4.4352 C   0  0  0  0  0  0  0  0  0  0  0  0
   -4.2650    5.6394    5.5938 C   0  0  0  0  0  0  0  0  0  0  0  0
   -5.1308    6.6738    5.5453 O   0  0  0  0  0  0  0  0  0  0  0  0
   -3.4957    5.4590    6.5195 O   0  0  0  0  0  0  0  0  0  0  0  0
   -7.7223    4.1300   -1.0361 H   0  0  0  0  0  0  0  0  0  0  0  0
  -11.6046    1.6945    0.9300 H   0  0  0  0  0  0  0  0  0  0  0  0
   -9.8667    5.3165   -0.6247 H   0  0  0  0  0  0  0  0  0  0  0  0
  -11.7930    4.1095    0.3553 H   0  0  0  0  0  0  0  0  0  0  0  0
   -3.9659   -0.7295   -0.2139 H   0  0  0  0  0  0  0  0  0  0  0  0
   -4.7785    0.6697   -0.9096 H   0  0  0  0  0  0  0  0  0  0  0  0
   -4.9004    2.4103    0.3278 H   0  0  0  0  0  0  0  0  0  0  0  0
   -3.8949    1.4169    3.8081 H   0  0  0  0  0  0  0  0  0  0  0  0
   -5.0364    4.5873    1.1012 H   0  0  0  0  0  0  0  0  0  0  0  0
   -3.7786    3.0171    5.6365 H   0  0  0  0  0  0  0  0  0  0  0  0
   -4.8768    6.2013    2.9355 H   0  0  0  0  0  0  0  0  0  0  0  0
   -5.8275    6.5978    4.8699 H   0  0  0  0  0  0  0  0  0  0  0  0
  1  2  2  0  0  0  0
  1  3  1  0  0  0  0
  1  4  1  0  0  0  0
  2  5  1  0  0  0  0
  2  6  1  0  0  0  0
  3  7  2  0  0  0  0
  4  8  2  0  0  0  0
  4 24  1  0  0  0  0
  5  7  1  0  0  0  0
  6  9  2  0  0  0  0
  6 25  1  0  0  0  0
  7 10  1  0  0  0  0
  8  9  1  0  0  0  0
  8 26  1  0  0  0  0
  9 27  1  0  0  0  0
 10 11  1  0  0  0  0
 11 12  1  0  0  0  0
 11 28  1  0  0  0  0
 11 29  1  0  0  0  0
 12 13  1  0  0  0  0
 12 14  2  0  0  0  0
 13 15  1  0  0  0  0
 13 30  1  0  0  0  0
 15 16  2  0  0  0  0
 15 17  1  0  0  0  0
 16 18  1  0  0  0  0
 16 31  1  0  0  0  0
 17 19  2  0  0  0  0
 17 32  1  0  0  0  0
 18 20  2  0  0  0  0
 18 33  1  0  0  0  0
 19 20  1  0  0  0  0
 19 34  1  0  0  0  0
 20 21  1  0  0  0  0
 21 22  1  0  0  0  0
 21 23  2  0  0  0  0
 22 35  1  0  0  0  0
M  END
>  <Mol_ID>
9174

>  <Formula>
C16H12N2O3S2

>  <MolWeight>
344.40808

>  <Cat>
P3246

>  <Name>
WYE-176244

>  <Synonyms>
N/A

>  <Target>
PTP1B

>  <Form>
free base

>  <CAS>
86109-60-6

>  <URL>
N/A

$$$$
