WYE-176114
 OpenBabel08302521443D

 37 39  0  0  0  0  0  0  0  0999 V2000
    2.4555    0.7235   -0.1464 C   0  0  0  0  0  0  0  0  0  0  0  0
    3.6724    1.4670   -0.1954 C   0  0  0  0  0  0  0  0  0  0  0  0
    1.1769    1.4920   -0.0663 C   0  0  0  0  0  0  0  0  0  0  0  0
    2.3864   -0.6254   -0.1105 C   0  0  0  0  0  0  0  0  0  0  0  0
    4.3964    1.9077   -1.3342 C   0  0  0  0  0  0  0  0  0  0  0  0
    5.5146    2.5714   -0.8559 C   0  0  0  0  0  0  0  0  0  0  0  0
   -0.0662    0.7122   -0.0370 C   0  0  0  0  0  0  0  0  0  0  0  0
    4.3746    1.8997    0.9084 C   0  0  0  0  0  0  0  0  0  0  0  0
    0.0129   -0.6737   -0.0058 C   0  0  0  0  0  0  0  0  0  0  0  0
    1.2038   -1.3473   -0.0088 O   0  0  0  0  0  0  0  0  0  0  0  0
    5.4956    2.5604    0.5142 O   0  0  0  0  0  0  0  0  0  0  0  0
    6.6104    3.2160   -1.5453 C   0  0  0  0  0  0  0  0  0  0  0  0
   -1.1550   -1.4355    0.0159 C   0  0  0  0  0  0  0  0  0  0  0  0
   -1.3112    1.3526   -0.0548 C   0  0  0  0  0  0  0  0  0  0  0  0
    1.1387    2.7177   -0.0247 O   0  0  0  0  0  0  0  0  0  0  0  0
    6.7503    3.2716   -2.7598 O   0  0  0  0  0  0  0  0  0  0  0  0
   -2.3915   -0.7964   -0.0225 C   0  0  0  0  0  0  0  0  0  0  0  0
   -2.4816    0.5927   -0.0588 C   0  0  0  0  0  0  0  0  0  0  0  0
    7.4805    3.7517   -0.6389 O   0  0  0  0  0  0  0  0  0  0  0  0
    3.5855   -1.5337   -0.1511 C   0  0  0  0  0  0  0  0  0  0  0  0
    4.1728    1.7941    2.3672 C   0  0  0  0  0  0  0  0  0  0  0  0
   -3.5091   -1.5768   -0.0334 O   0  0  0  0  0  0  0  0  0  0  0  0
    8.6059    4.4129   -1.2108 C   0  0  0  0  0  0  0  0  0  0  0  0
    4.1485    1.7690   -2.3777 H   0  0  0  0  0  0  0  0  0  0  0  0
   -1.1054   -2.5201    0.0486 H   0  0  0  0  0  0  0  0  0  0  0  0
   -1.3683    2.4391   -0.0781 H   0  0  0  0  0  0  0  0  0  0  0  0
   -3.4424    1.0973   -0.0944 H   0  0  0  0  0  0  0  0  0  0  0  0
    3.5741   -2.2070    0.7124 H   0  0  0  0  0  0  0  0  0  0  0  0
    3.5591   -2.1424   -1.0611 H   0  0  0  0  0  0  0  0  0  0  0  0
    4.5413   -1.0033   -0.1354 H   0  0  0  0  0  0  0  0  0  0  0  0
    5.0373    1.3129    2.8340 H   0  0  0  0  0  0  0  0  0  0  0  0
    4.0492    2.7887    2.8055 H   0  0  0  0  0  0  0  0  0  0  0  0
    3.2849    1.2023    2.6082 H   0  0  0  0  0  0  0  0  0  0  0  0
   -4.2926   -1.0050   -0.0959 H   0  0  0  0  0  0  0  0  0  0  0  0
    9.2147    3.7071   -1.7837 H   0  0  0  0  0  0  0  0  0  0  0  0
    8.2829    5.2496   -1.8376 H   0  0  0  0  0  0  0  0  0  0  0  0
    9.2148    4.8093   -0.3932 H   0  0  0  0  0  0  0  0  0  0  0  0
  2  1  1  0  0  0  0
  3  1  1  0  0  0  0
  4  1  2  0  0  0  0
  5  2  1  0  0  0  0
  5 24  1  0  0  0  0
  6  5  2  0  0  0  0
  7  3  1  0  0  0  0
  8  2  2  0  0  0  0
  9  7  2  0  0  0  0
  9 10  1  0  0  0  0
 10  4  1  0  0  0  0
 11  8  1  0  0  0  0
 11  6  1  0  0  0  0
 12  6  1  0  0  0  0
 13  9  1  0  0  0  0
 13 25  1  0  0  0  0
 14  7  1  0  0  0  0
 14 26  1  0  0  0  0
 15  3  2  0  0  0  0
 16 12  2  0  0  0  0
 17 13  2  0  0  0  0
 18 14  2  0  0  0  0
 18 17  1  0  0  0  0
 18 27  1  0  0  0  0
 19 12  1  0  0  0  0
 20  4  1  0  0  0  0
 20 28  1  0  0  0  0
 20 29  1  0  0  0  0
 20 30  1  0  0  0  0
 21  8  1  0  0  0  0
 21 31  1  0  0  0  0
 21 32  1  0  0  0  0
 21 33  1  0  0  0  0
 22 17  1  0  0  0  0
 22 34  1  0  0  0  0
 23 19  1  0  0  0  0
 23 35  1  0  0  0  0
 23 36  1  0  0  0  0
 23 37  1  0  0  0  0
M  END
>  <Mol_ID>
9166

>  <Formula>
C17H14O6

>  <MolWeight>
314.28946

>  <Cat>
P3238

>  <Name>
WYE-176114

>  <Synonyms>
N/A

>  <Target>
NS5B

>  <Form>
free base

>  <CAS>
73868-66-3

>  <URL>
N/A

$$$$
