WYE-176238
 OpenBabel08302521443D

 42 44  0  0  0  0  0  0  0  0999 V2000
    1.4806    1.1475   -0.8415 C   0  0  0  0  0  0  0  0  0  0  0  0
    1.4862   -0.2566   -0.7935 C   0  0  0  0  0  0  0  0  0  0  0  0
    0.4966    1.7791   -1.6212 C   0  0  0  0  0  0  0  0  0  0  0  0
    0.5440   -1.0024   -1.4979 C   0  0  0  0  0  0  0  0  0  0  0  0
   -0.4326   -0.3592   -2.2523 C   0  0  0  0  0  0  0  0  0  0  0  0
    2.5105    1.9174   -0.0678 C   0  0  0  0  0  0  0  0  0  0  0  0
   -0.4876    1.0384   -2.3141 C   0  0  0  0  0  0  0  0  0  0  0  0
   -0.2203    7.1853    1.1654 C   0  0  0  0  0  0  0  0  0  0  0  0
    0.0281    5.8183    0.9665 C   0  0  0  0  0  0  0  0  0  0  0  0
    2.5511    3.4441   -0.1021 C   0  0  0  0  0  0  0  0  0  0  0  0
    3.3619    1.2790    0.5617 O   0  0  0  0  0  0  0  0  0  0  0  0
    0.7807    8.1252    0.8321 C   0  0  0  0  0  0  0  0  0  0  0  0
    1.3201    4.0034    0.3263 O   0  0  0  0  0  0  0  0  0  0  0  0
    1.9968    7.6610    0.3044 C   0  0  0  0  0  0  0  0  0  0  0  0
    1.2428    5.3637    0.4478 C   0  0  0  0  0  0  0  0  0  0  0  0
    2.3946   -0.9875   -0.0721 O   0  0  0  0  0  0  0  0  0  0  0  0
   -1.3139   -1.1771   -2.9004 O   0  0  0  0  0  0  0  0  0  0  0  0
    2.2274    6.2890    0.1122 C   0  0  0  0  0  0  0  0  0  0  0  0
   -1.5672    1.7846   -3.0634 C   0  0  0  0  0  0  0  0  0  0  0  0
   -1.4418    7.6337    1.6927 C   0  0  0  0  0  0  0  0  0  0  0  0
    0.5272    9.4937    1.0457 C   0  0  0  0  0  0  0  0  0  0  0  0
   -1.2291    2.0132   -4.5284 C   0  0  0  0  0  0  0  0  0  0  0  0
   -1.6767    8.9937    1.8978 C   0  0  0  0  0  0  0  0  0  0  0  0
   -0.6927    9.9237    1.5771 C   0  0  0  0  0  0  0  0  0  0  0  0
    0.4609    2.8646   -1.6904 H   0  0  0  0  0  0  0  0  0  0  0  0
    0.5672   -2.0879   -1.4509 H   0  0  0  0  0  0  0  0  0  0  0  0
   -0.7336    5.0872    1.2290 H   0  0  0  0  0  0  0  0  0  0  0  0
    3.3532    3.7515    0.5827 H   0  0  0  0  0  0  0  0  0  0  0  0
    2.8056    3.7568   -1.1205 H   0  0  0  0  0  0  0  0  0  0  0  0
    2.7790    8.3697    0.0390 H   0  0  0  0  0  0  0  0  0  0  0  0
    2.9973   -0.3565    0.3828 H   0  0  0  0  0  0  0  0  0  0  0  0
   -1.9093   -0.6551   -3.4580 H   0  0  0  0  0  0  0  0  0  0  0  0
    3.1871    5.9888   -0.2961 H   0  0  0  0  0  0  0  0  0  0  0  0
   -2.5197    1.2480   -2.9794 H   0  0  0  0  0  0  0  0  0  0  0  0
   -1.7443    2.7523   -2.5787 H   0  0  0  0  0  0  0  0  0  0  0  0
   -2.2212    6.9211    1.9527 H   0  0  0  0  0  0  0  0  0  0  0  0
    1.2816   10.2386    0.8038 H   0  0  0  0  0  0  0  0  0  0  0  0
   -0.3207    2.6149   -4.6368 H   0  0  0  0  0  0  0  0  0  0  0  0
   -1.0752    1.0687   -5.0602 H   0  0  0  0  0  0  0  0  0  0  0  0
   -2.0480    2.5481   -5.0211 H   0  0  0  0  0  0  0  0  0  0  0  0
   -2.6265    9.3233    2.3110 H   0  0  0  0  0  0  0  0  0  0  0  0
   -0.8733   10.9829    1.7424 H   0  0  0  0  0  0  0  0  0  0  0  0
  2  1  2  0  0  0  0
  3  1  1  0  0  0  0
  3 25  1  0  0  0  0
  4  2  1  0  0  0  0
  4 26  1  0  0  0  0
  5  7  1  0  0  0  0
  5  4  2  0  0  0  0
  6  1  1  0  0  0  0
  7  3  2  0  0  0  0
  8  9  2  0  0  0  0
  8 12  1  0  0  0  0
  9 15  1  0  0  0  0
  9 27  1  0  0  0  0
 10  6  1  0  0  0  0
 10 28  1  0  0  0  0
 10 29  1  0  0  0  0
 11  6  2  0  0  0  0
 12 14  2  0  0  0  0
 13 10  1  0  0  0  0
 14 18  1  0  0  0  0
 14 30  1  0  0  0  0
 15 13  1  0  0  0  0
 16  2  1  0  0  0  0
 16 31  1  0  0  0  0
 17  5  1  0  0  0  0
 17 32  1  0  0  0  0
 18 15  2  0  0  0  0
 18 33  1  0  0  0  0
 19  7  1  0  0  0  0
 19 34  1  0  0  0  0
 19 35  1  0  0  0  0
 20  8  1  0  0  0  0
 20 36  1  0  0  0  0
 21 12  1  0  0  0  0
 21 37  1  0  0  0  0
 22 19  1  0  0  0  0
 22 38  1  0  0  0  0
 22 39  1  0  0  0  0
 22 40  1  0  0  0  0
 23 20  2  0  0  0  0
 23 24  1  0  0  0  0
 23 41  1  0  0  0  0
 24 21  2  0  0  0  0
 24 42  1  0  0  0  0
M  END
>  <Mol_ID>
9173

>  <Formula>
C20H18O4

>  <MolWeight>
322.35452

>  <Cat>
P3245

>  <Name>
WYE-176238

>  <Synonyms>
N/A

>  <Target>
KLF10

>  <Form>
free base

>  <CAS>
315234-15-2

>  <URL>
N/A

$$$$
