WYE-176392
 OpenBabel08302521443D

 31 33  0  0  0  0  0  0  0  0999 V2000
    5.4246   -5.4137    1.9247 N   0  0  0  0  0  0  0  0  0  0  0  0
    4.5247   -3.4749    0.8265 C   0  0  0  0  0  0  0  0  0  0  0  0
    5.0758   -4.8890    0.7099 C   0  0  0  0  0  0  0  0  0  0  0  0
    4.0598   -2.9785    1.9281 N   0  0  0  0  0  0  0  0  0  0  0  0
    3.8768   -0.5797   -2.7971 N   0  0  0  0  0  0  0  0  0  0  0  0
    3.9873    0.4005   -3.6752 C   0  0  0  0  0  0  0  0  0  0  0  0
    4.8017   -5.0176    3.0715 C   0  0  0  0  0  0  0  0  0  0  0  0
    4.1312   -3.8170    3.0171 N   0  0  0  0  0  0  0  0  0  0  0  0
    4.1637    1.9644   -2.9682 S   0  0  0  0  0  0  0  0  0  0  0  0
    4.0370   -0.1110   -1.4937 C   0  0  0  0  0  0  0  0  0  0  0  0
    4.6999   -2.6847   -0.6939 S   0  0  0  0  0  0  0  0  0  0  0  0
    4.1699    1.2630   -1.4098 C   0  0  0  0  0  0  0  0  0  0  0  0
    5.1182   -5.5412   -0.3204 O   0  0  0  0  0  0  0  0  0  0  0  0
    4.8078   -5.7165    4.0783 O   0  0  0  0  0  0  0  0  0  0  0  0
    3.9101    0.2375   -5.1404 C   0  0  0  0  0  0  0  0  0  0  0  0
    4.0113   -1.0524   -0.3182 C   0  0  0  0  0  0  0  0  0  0  0  0
    3.1370   -0.7997   -5.6822 C   0  0  0  0  0  0  0  0  0  0  0  0
    4.5969    1.0820   -6.0302 C   0  0  0  0  0  0  0  0  0  0  0  0
    4.4860    0.9130   -7.4152 C   0  0  0  0  0  0  0  0  0  0  0  0
    3.0229   -0.9687   -7.0667 C   0  0  0  0  0  0  0  0  0  0  0  0
    3.6934   -0.1077   -7.9320 C   0  0  0  0  0  0  0  0  0  0  0  0
    5.7601   -6.3648    1.9229 H   0  0  0  0  0  0  0  0  0  0  0  0
    3.6843   -3.4995    3.8744 H   0  0  0  0  0  0  0  0  0  0  0  0
    4.2726    1.8780   -0.5275 H   0  0  0  0  0  0  0  0  0  0  0  0
    2.9781   -1.1534    0.0300 H   0  0  0  0  0  0  0  0  0  0  0  0
    4.6018   -0.6133    0.4951 H   0  0  0  0  0  0  0  0  0  0  0  0
    2.6087   -1.4862   -5.0202 H   0  0  0  0  0  0  0  0  0  0  0  0
    5.2391    1.8785   -5.6616 H   0  0  0  0  0  0  0  0  0  0  0  0
    5.0227    1.5781   -8.0875 H   0  0  0  0  0  0  0  0  0  0  0  0
    2.4099   -1.7717   -7.4673 H   0  0  0  0  0  0  0  0  0  0  0  0
    3.6031   -0.2350   -9.0084 H   0  0  0  0  0  0  0  0  0  0  0  0
  1 22  1  0  0  0  0
  2  3  1  0  0  0  0
  2  4  2  0  0  0  0
  3  1  1  0  0  0  0
  4  8  1  0  0  0  0
  5 10  1  0  0  0  0
  6  5  2  0  0  0  0
  6  9  1  0  0  0  0
  7  1  1  0  0  0  0
  8  7  1  0  0  0  0
  8 23  1  0  0  0  0
  9 12  1  0  0  0  0
 10 16  1  0  0  0  0
 11  2  1  0  0  0  0
 12 10  2  0  0  0  0
 12 24  1  0  0  0  0
 13  3  2  0  0  0  0
 14  7  2  0  0  0  0
 15  6  1  0  0  0  0
 16 11  1  0  0  0  0
 16 25  1  0  0  0  0
 16 26  1  0  0  0  0
 17 15  2  0  0  0  0
 17 27  1  0  0  0  0
 18 15  1  0  0  0  0
 18 28  1  0  0  0  0
 19 18  2  0  0  0  0
 19 29  1  0  0  0  0
 20 17  1  0  0  0  0
 20 30  1  0  0  0  0
 21 20  2  0  0  0  0
 21 19  1  0  0  0  0
 21 31  1  0  0  0  0
M  END
>  <Mol_ID>
9178

>  <Formula>
C13H10N4O2S2

>  <MolWeight>
318.3741

>  <Cat>
P3250

>  <Name>
WYE-176392

>  <Synonyms>
N/A

>  <Target>
SOD dimers

>  <Form>
free base

>  <CAS>
379697-13-9

>  <URL>
N/A

$$$$
