WYE-176237
 OpenBabel08302521443D

 33 34  0  0  0  0  0  0  0  0999 V2000
    0.7762   -1.2451   -0.0681 C   0  0  0  0  0  0  0  0  0  0  0  0
    1.2822    0.0714    0.0207 C   0  0  0  0  0  0  0  0  0  0  0  0
   -0.6427   -1.3877   -0.0635 C   0  0  0  0  0  0  0  0  0  0  0  0
    0.4437    1.2004    0.0268 C   0  0  0  0  0  0  0  0  0  0  0  0
    1.6926   -2.4507   -0.2167 C   0  0  0  0  0  0  0  0  0  0  0  0
   -1.4662   -0.2335   -0.0380 C   0  0  0  0  0  0  0  0  0  0  0  0
   -0.9302    1.0332   -0.0045 C   0  0  0  0  0  0  0  0  0  0  0  0
    3.2147   -2.3107   -0.3631 C   0  0  0  0  0  0  0  0  0  0  0  0
    1.2321   -3.5904   -0.2442 O   0  0  0  0  0  0  0  0  0  0  0  0
    3.8014   -2.1725    0.9289 O   0  0  0  0  0  0  0  0  0  0  0  0
    2.6107    0.3854    0.1222 O   0  0  0  0  0  0  0  0  0  0  0  0
   -1.7887    2.0940    0.0053 O   0  0  0  0  0  0  0  0  0  0  0  0
    5.1612   -2.3297    1.0265 C   0  0  0  0  0  0  0  0  0  0  0  0
   -1.4353   -2.6727   -0.1016 C   0  0  0  0  0  0  0  0  0  0  0  0
    6.0682   -2.3297   -0.0351 C   0  0  0  0  0  0  0  0  0  0  0  0
    5.6521   -2.4522    2.3320 C   0  0  0  0  0  0  0  0  0  0  0  0
    7.0263   -2.5377    2.5795 C   0  0  0  0  0  0  0  0  0  0  0  0
    7.4461   -2.4118    0.2126 C   0  0  0  0  0  0  0  0  0  0  0  0
    7.9261   -2.5050    1.5182 C   0  0  0  0  0  0  0  0  0  0  0  0
    0.8843    2.1928    0.0682 H   0  0  0  0  0  0  0  0  0  0  0  0
   -2.5509   -0.3372   -0.0502 H   0  0  0  0  0  0  0  0  0  0  0  0
    3.5666   -3.2296   -0.8509 H   0  0  0  0  0  0  0  0  0  0  0  0
    3.4718   -1.4766   -1.0229 H   0  0  0  0  0  0  0  0  0  0  0  0
    3.0017   -0.1521    0.8395 H   0  0  0  0  0  0  0  0  0  0  0  0
   -1.2796    2.9218    0.0094 H   0  0  0  0  0  0  0  0  0  0  0  0
   -2.1645   -2.6673    0.7188 H   0  0  0  0  0  0  0  0  0  0  0  0
   -1.9843   -2.7372   -1.0473 H   0  0  0  0  0  0  0  0  0  0  0  0
   -0.8724   -3.5912    0.0227 H   0  0  0  0  0  0  0  0  0  0  0  0
    5.7441   -2.2521   -1.0674 H   0  0  0  0  0  0  0  0  0  0  0  0
    4.9607   -2.4830    3.1704 H   0  0  0  0  0  0  0  0  0  0  0  0
    7.3932   -2.6229    3.5997 H   0  0  0  0  0  0  0  0  0  0  0  0
    8.1504   -2.3936   -0.6164 H   0  0  0  0  0  0  0  0  0  0  0  0
    8.9961   -2.5532    1.7071 H   0  0  0  0  0  0  0  0  0  0  0  0
  2  1  2  0  0  0  0
  3  1  1  0  0  0  0
  4  2  1  0  0  0  0
  4  7  2  0  0  0  0
  4 20  1  0  0  0  0
  5  1  1  0  0  0  0
  6  3  2  0  0  0  0
  6 21  1  0  0  0  0
  7  6  1  0  0  0  0
  8  5  1  0  0  0  0
  8 22  1  0  0  0  0
  8 23  1  0  0  0  0
  9  5  2  0  0  0  0
 10  8  1  0  0  0  0
 11  2  1  0  0  0  0
 11 24  1  0  0  0  0
 12  7  1  0  0  0  0
 12 25  1  0  0  0  0
 13 10  1  0  0  0  0
 14  3  1  0  0  0  0
 14 26  1  0  0  0  0
 14 27  1  0  0  0  0
 14 28  1  0  0  0  0
 15 13  2  0  0  0  0
 15 29  1  0  0  0  0
 16 13  1  0  0  0  0
 16 30  1  0  0  0  0
 17 16  2  0  0  0  0
 17 31  1  0  0  0  0
 18 15  1  0  0  0  0
 18 32  1  0  0  0  0
 19 17  1  0  0  0  0
 19 18  2  0  0  0  0
 19 33  1  0  0  0  0
M  END
>  <Mol_ID>
9172

>  <Formula>
C15H14O4

>  <MolWeight>
258.26926

>  <Cat>
P3244

>  <Name>
WYE-176237

>  <Synonyms>
N/A

>  <Target>
antimalarial HDP

>  <Form>
free base

>  <CAS>
315233-87-5

>  <URL>
N/A

$$$$
