WZ4003.cdx
 OpenBabel08302519583D

 64 67  0  0  0  0  0  0  0  0999 V2000
    1.1764    0.4489    0.9859 N   0  0  0  0  0  0  0  0  0  0  0  0
    0.1218    1.2292    0.6981 C   0  0  0  0  0  0  0  0  0  0  0  0
   -1.1325    0.7699    0.6048 N   0  0  0  0  0  0  0  0  0  0  0  0
   -1.3210   -0.5507    0.8138 C   0  0  0  0  0  0  0  0  0  0  0  0
   -0.2959   -1.4133    1.1385 C   0  0  0  0  0  0  0  0  0  0  0  0
    0.9515   -0.8559    1.1868 C   0  0  0  0  0  0  0  0  0  0  0  0
    0.3074    2.6026    0.5141 N   0  0  0  0  0  0  0  0  0  0  0  0
    1.4945    3.2498    0.1133 C   0  0  0  0  0  0  0  0  0  0  0  0
    1.8222    4.5565    0.5000 C   0  0  0  0  0  0  0  0  0  0  0  0
    3.0127    5.1316    0.0230 C   0  0  0  0  0  0  0  0  0  0  0  0
    3.9004    4.4724   -0.8383 C   0  0  0  0  0  0  0  0  0  0  0  0
    3.5667    3.1782   -1.2146 C   0  0  0  0  0  0  0  0  0  0  0  0
    2.3807    2.5894   -0.7632 C   0  0  0  0  0  0  0  0  0  0  0  0
    1.1702    5.4179    1.3403 O   0  0  0  0  0  0  0  0  0  0  0  0
   -0.0047    5.0164    2.0169 C   0  0  0  0  0  0  0  0  0  0  0  0
    5.0681    5.1083   -1.2235 N   0  0  0  0  0  0  0  0  0  0  0  0
    6.2424    4.3561   -1.6841 C   0  0  0  0  0  0  0  0  0  0  0  0
    7.5081    5.2179   -1.4404 C   0  0  0  0  0  0  0  0  0  0  0  0
    7.4379    6.5533   -2.0837 N   0  0  0  0  0  0  0  0  0  0  0  0
    6.2024    7.2470   -1.6502 C   0  0  0  0  0  0  0  0  0  0  0  0
    4.9268    6.4122   -1.8986 C   0  0  0  0  0  0  0  0  0  0  0  0
    8.6092    7.3514   -1.7310 C   0  0  0  0  0  0  0  0  0  0  0  0
   -2.6478   -0.9305    0.7622 O   0  0  0  0  0  0  0  0  0  0  0  0
   -2.9819   -2.2334    0.4784 C   0  0  0  0  0  0  0  0  0  0  0  0
   -2.3727   -2.9813   -0.5296 C   0  0  0  0  0  0  0  0  0  0  0  0
   -2.7490   -4.3062   -0.7640 C   0  0  0  0  0  0  0  0  0  0  0  0
   -3.8232   -4.8410   -0.0466 C   0  0  0  0  0  0  0  0  0  0  0  0
   -4.4675   -4.0804    0.9344 C   0  0  0  0  0  0  0  0  0  0  0  0
   -4.0433   -2.7766    1.2039 C   0  0  0  0  0  0  0  0  0  0  0  0
   -2.0899   -5.1267   -1.7063 N   0  0  0  0  0  0  0  0  0  0  0  0
   -0.8033   -4.9216   -2.1815 C   0  0  0  0  0  0  0  0  0  0  0  0
   -0.3962   -5.8940   -3.2659 C   0  0  0  0  0  0  0  0  0  0  0  0
   -0.0262   -4.0485   -1.8046 O   0  0  0  0  0  0  0  0  0  0  0  0
   -0.8056   -5.3690   -4.6283 C   0  0  0  0  0  0  0  0  0  0  0  0
   -0.4341   -2.4656    1.3373 H   0  0  0  0  0  0  0  0  0  0  0  0
    1.8330   -1.4523    1.4008 H   0  0  0  0  0  0  0  0  0  0  0  0
   -0.5312    2.9946    0.1152 H   0  0  0  0  0  0  0  0  0  0  0  0
    3.2748    6.1244    0.3849 H   0  0  0  0  0  0  0  0  0  0  0  0
    4.2047    2.6035   -1.8782 H   0  0  0  0  0  0  0  0  0  0  0  0
    2.1583    1.5820   -1.1097 H   0  0  0  0  0  0  0  0  0  0  0  0
   -0.8567    5.0350    1.3318 H   0  0  0  0  0  0  0  0  0  0  0  0
    0.1018    4.0536    2.5211 H   0  0  0  0  0  0  0  0  0  0  0  0
   -0.1961    5.7605    2.7982 H   0  0  0  0  0  0  0  0  0  0  0  0
    6.1482    4.1111   -2.7501 H   0  0  0  0  0  0  0  0  0  0  0  0
    6.3576    3.4188   -1.1265 H   0  0  0  0  0  0  0  0  0  0  0  0
    8.3785    4.6720   -1.8221 H   0  0  0  0  0  0  0  0  0  0  0  0
    7.6403    5.3333   -0.3559 H   0  0  0  0  0  0  0  0  0  0  0  0
    6.2562    7.4831   -0.5789 H   0  0  0  0  0  0  0  0  0  0  0  0
    6.1026    8.1946   -2.1928 H   0  0  0  0  0  0  0  0  0  0  0  0
    4.7808    6.2548   -2.9749 H   0  0  0  0  0  0  0  0  0  0  0  0
    4.0647    6.9840   -1.5389 H   0  0  0  0  0  0  0  0  0  0  0  0
    8.5682    8.3278   -2.2276 H   0  0  0  0  0  0  0  0  0  0  0  0
    8.6906    7.5182   -0.6501 H   0  0  0  0  0  0  0  0  0  0  0  0
    9.5260    6.8602   -2.0739 H   0  0  0  0  0  0  0  0  0  0  0  0
   -1.6033   -2.5143   -1.1372 H   0  0  0  0  0  0  0  0  0  0  0  0
   -4.1584   -5.8612   -0.2199 H   0  0  0  0  0  0  0  0  0  0  0  0
   -5.2930   -4.5066    1.4992 H   0  0  0  0  0  0  0  0  0  0  0  0
   -4.5403   -2.1893    1.9670 H   0  0  0  0  0  0  0  0  0  0  0  0
   -2.5247   -6.0163   -1.9171 H   0  0  0  0  0  0  0  0  0  0  0  0
    0.6918   -6.0159   -3.2161 H   0  0  0  0  0  0  0  0  0  0  0  0
   -0.8374   -6.8788   -3.0815 H   0  0  0  0  0  0  0  0  0  0  0  0
   -0.4513   -4.3432   -4.7789 H   0  0  0  0  0  0  0  0  0  0  0  0
   -0.3847   -5.9958   -5.4200 H   0  0  0  0  0  0  0  0  0  0  0  0
   -1.8948   -5.3634   -4.7362 H   0  0  0  0  0  0  0  0  0  0  0  0
  1  2  2  0  0  0  0
  2  3  1  0  0  0  0
  2  7  1  0  0  0  0
  3  4  2  0  0  0  0
  4  5  1  0  0  0  0
  4 23  1  0  0  0  0
  5  6  2  0  0  0  0
  5 35  1  0  0  0  0
  6  1  1  0  0  0  0
  6 36  1  0  0  0  0
  7  8  1  0  0  0  0
  7 37  1  0  0  0  0
  8  9  2  0  0  0  0
  9 10  1  0  0  0  0
  9 14  1  0  0  0  0
 10 11  2  0  0  0  0
 10 38  1  0  0  0  0
 11 12  1  0  0  0  0
 11 16  1  0  0  0  0
 12 13  2  0  0  0  0
 12 39  1  0  0  0  0
 13  8  1  0  0  0  0
 13 40  1  0  0  0  0
 14 15  1  0  0  0  0
 15 41  1  0  0  0  0
 15 42  1  0  0  0  0
 15 43  1  0  0  0  0
 16 17  1  0  0  0  0
 17 18  1  0  0  0  0
 17 44  1  0  0  0  0
 17 45  1  0  0  0  0
 18 19  1  0  0  0  0
 18 46  1  0  0  0  0
 18 47  1  0  0  0  0
 19 20  1  0  0  0  0
 19 22  1  0  0  0  0
 20 21  1  0  0  0  0
 20 48  1  0  0  0  0
 20 49  1  0  0  0  0
 21 16  1  0  0  0  0
 21 50  1  0  0  0  0
 21 51  1  0  0  0  0
 22 52  1  0  0  0  0
 22 53  1  0  0  0  0
 22 54  1  0  0  0  0
 23 24  1  0  0  0  0
 24 25  2  0  0  0  0
 25 26  1  0  0  0  0
 25 55  1  0  0  0  0
 26 27  2  0  0  0  0
 26 30  1  0  0  0  0
 27 28  1  0  0  0  0
 27 56  1  0  0  0  0
 28 29  2  0  0  0  0
 28 57  1  0  0  0  0
 29 24  1  0  0  0  0
 29 58  1  0  0  0  0
 30 31  1  0  0  0  0
 30 59  1  0  0  0  0
 31 32  1  0  0  0  0
 31 33  2  0  0  0  0
 32 34  1  0  0  0  0
 32 60  1  0  0  0  0
 32 61  1  0  0  0  0
 34 62  1  0  0  0  0
 34 63  1  0  0  0  0
 34 64  1  0  0  0  0
M  END
>  <Mol_ID>
2338

>  <Formula>
C25H29ClN6O3

>  <MolWeight>
496.98916

>  <Cat>
S7317

>  <Name>
WZ4003

>  <Synonyms>
N/A

>  <Target>
AMPK

>  <Form>
free base

>  <CAS>
1214265-58-3

>  <URL>
http://selleckchem.com/products/wz4003.html

$$$$
