WZ 811.cdx
 OpenBabel08302522013D

 40 42  0  0  0  0  0  0  0  0999 V2000
    1.3941   -0.2341    0.0596 C   0  0  0  0  0  0  0  0  0  0  0  0
    0.4887   -1.3033    0.0124 C   0  0  0  0  0  0  0  0  0  0  0  0
   -0.8909   -1.0719   -0.0385 C   0  0  0  0  0  0  0  0  0  0  0  0
   -1.3990    0.2343   -0.0681 C   0  0  0  0  0  0  0  0  0  0  0  0
   -0.4944    1.3051   -0.0213 C   0  0  0  0  0  0  0  0  0  0  0  0
    0.8871    1.0735    0.0330 C   0  0  0  0  0  0  0  0  0  0  0  0
    2.8822   -0.4936    0.1814 C   0  0  0  0  0  0  0  0  0  0  0  0
    3.5053   -0.6347   -1.1323 N   0  0  0  0  0  0  0  0  0  0  0  0
   -2.8898    0.4743   -0.1957 C   0  0  0  0  0  0  0  0  0  0  0  0
   -3.5332    0.5273    1.1149 N   0  0  0  0  0  0  0  0  0  0  0  0
   -4.9173    0.7847    1.0366 C   0  0  0  0  0  0  0  0  0  0  0  0
   -5.6604    0.8477    2.2151 C   0  0  0  0  0  0  0  0  0  0  0  0
   -7.0378    1.0721    2.1519 C   0  0  0  0  0  0  0  0  0  0  0  0
   -7.6423    1.2367    0.9145 C   0  0  0  0  0  0  0  0  0  0  0  0
   -6.8395    1.1613   -0.2069 C   0  0  0  0  0  0  0  0  0  0  0  0
   -5.5082    0.9330   -0.1674 N   0  0  0  0  0  0  0  0  0  0  0  0
    4.8990   -0.8408   -1.0613 C   0  0  0  0  0  0  0  0  0  0  0  0
    5.6210   -1.0122   -2.2421 C   0  0  0  0  0  0  0  0  0  0  0  0
    6.9931   -1.2541   -2.1846 C   0  0  0  0  0  0  0  0  0  0  0  0
    7.6224   -1.3126   -0.9459 C   0  0  0  0  0  0  0  0  0  0  0  0
    6.8399   -1.1313    0.1764 C   0  0  0  0  0  0  0  0  0  0  0  0
    5.5067   -0.9076    0.1404 N   0  0  0  0  0  0  0  0  0  0  0  0
    0.8562   -2.3277    0.0245 H   0  0  0  0  0  0  0  0  0  0  0  0
   -1.5722   -1.9201   -0.0662 H   0  0  0  0  0  0  0  0  0  0  0  0
   -0.8598    2.3298   -0.0402 H   0  0  0  0  0  0  0  0  0  0  0  0
    1.5659    1.9232    0.0661 H   0  0  0  0  0  0  0  0  0  0  0  0
    3.3325    0.3310    0.7498 H   0  0  0  0  0  0  0  0  0  0  0  0
    3.0234   -1.4103    0.7698 H   0  0  0  0  0  0  0  0  0  0  0  0
    3.3152    0.1618   -1.7316 H   0  0  0  0  0  0  0  0  0  0  0  0
   -3.0445    1.4075   -0.7534 H   0  0  0  0  0  0  0  0  0  0  0  0
   -3.3177   -0.3395   -0.7967 H   0  0  0  0  0  0  0  0  0  0  0  0
   -3.1007    1.2162    1.7217 H   0  0  0  0  0  0  0  0  0  0  0  0
   -5.1826    0.7060    3.1788 H   0  0  0  0  0  0  0  0  0  0  0  0
   -7.6319    1.1117    3.0609 H   0  0  0  0  0  0  0  0  0  0  0  0
   -8.7076    1.4144    0.8226 H   0  0  0  0  0  0  0  0  0  0  0  0
   -7.2523    1.2866   -1.2033 H   0  0  0  0  0  0  0  0  0  0  0  0
    5.1211   -0.9809   -3.2046 H   0  0  0  0  0  0  0  0  0  0  0  0
    7.5671   -1.4055   -3.0931 H   0  0  0  0  0  0  0  0  0  0  0  0
    8.6861   -1.4984   -0.8598 H   0  0  0  0  0  0  0  0  0  0  0  0
    7.2725   -1.1630    1.1722 H   0  0  0  0  0  0  0  0  0  0  0  0
  1  2  2  0  0  0  0
  1  6  1  0  0  0  0
  1  7  1  0  0  0  0
  2  3  1  0  0  0  0
  2 23  1  0  0  0  0
  3  4  2  0  0  0  0
  3 24  1  0  0  0  0
  4  5  1  0  0  0  0
  4  9  1  0  0  0  0
  5  6  2  0  0  0  0
  5 25  1  0  0  0  0
  6 26  1  0  0  0  0
  7  8  1  0  0  0  0
  7 27  1  0  0  0  0
  7 28  1  0  0  0  0
  8 17  1  0  0  0  0
  8 29  1  0  0  0  0
  9 10  1  0  0  0  0
  9 30  1  0  0  0  0
  9 31  1  0  0  0  0
 10 11  1  0  0  0  0
 10 32  1  0  0  0  0
 11 12  2  0  0  0  0
 11 16  1  0  0  0  0
 12 13  1  0  0  0  0
 12 33  1  0  0  0  0
 13 14  2  0  0  0  0
 13 34  1  0  0  0  0
 14 15  1  0  0  0  0
 14 35  1  0  0  0  0
 15 16  2  0  0  0  0
 15 36  1  0  0  0  0
 17 18  2  0  0  0  0
 17 22  1  0  0  0  0
 18 19  1  0  0  0  0
 18 37  1  0  0  0  0
 19 20  2  0  0  0  0
 19 38  1  0  0  0  0
 20 21  1  0  0  0  0
 20 39  1  0  0  0  0
 21 22  2  0  0  0  0
 21 40  1  0  0  0  0
M  END
>  <Mol_ID>
1096

>  <Formula>
C18H18N4

>  <MolWeight>
290.36232

>  <Cat>
S2912

>  <Name>
WZ811

>  <Synonyms>
N/A

>  <Target>
CXCR

>  <Form>
free base

>  <CAS>
55778-02-4

>  <URL>
http://selleckchem.com/products/wz-811.html

$$$$
