WZB117.cdx
 OpenBabel08302520003D

 40 42  0  0  0  0  0  0  0  0999 V2000
    0.0370    1.3912   -0.3623 C   0  0  0  0  0  0  0  0  0  0  0  0
    0.6666    0.1821   -0.6584 C   0  0  0  0  0  0  0  0  0  0  0  0
    0.0653   -1.0395   -0.3340 C   0  0  0  0  0  0  0  0  0  0  0  0
   -1.2253   -1.0280    0.2358 C   0  0  0  0  0  0  0  0  0  0  0  0
   -1.8121    0.1883    0.6054 C   0  0  0  0  0  0  0  0  0  0  0  0
   -1.1773    1.3959    0.3136 C   0  0  0  0  0  0  0  0  0  0  0  0
    1.8705    0.2642   -1.2335 F   0  0  0  0  0  0  0  0  0  0  0  0
    0.7438   -2.2980   -0.4008 O   0  0  0  0  0  0  0  0  0  0  0  0
   -1.9199   -2.2728    0.3462 O   0  0  0  0  0  0  0  0  0  0  0  0
   -3.2818   -2.4165    0.6651 C   0  0  0  0  0  0  0  0  0  0  0  0
   -3.7590   -3.8069    0.4218 C   0  0  0  0  0  0  0  0  0  0  0  0
   -4.0256   -1.5543    1.0935 O   0  0  0  0  0  0  0  0  0  0  0  0
    1.8929   -2.5967   -1.1372 C   0  0  0  0  0  0  0  0  0  0  0  0
    2.4554   -3.9288   -0.7607 C   0  0  0  0  0  0  0  0  0  0  0  0
    2.3761   -1.9360   -2.0422 O   0  0  0  0  0  0  0  0  0  0  0  0
    3.5723   -4.4043   -1.4730 C   0  0  0  0  0  0  0  0  0  0  0  0
    4.0500   -5.7043   -1.2729 C   0  0  0  0  0  0  0  0  0  0  0  0
    3.4241   -6.5380   -0.3475 C   0  0  0  0  0  0  0  0  0  0  0  0
    2.3581   -6.0419    0.3983 C   0  0  0  0  0  0  0  0  0  0  0  0
    1.8786   -4.7473    0.2156 C   0  0  0  0  0  0  0  0  0  0  0  0
   -5.0907   -4.1197    0.7542 C   0  0  0  0  0  0  0  0  0  0  0  0
   -5.5441   -5.4312    0.6348 C   0  0  0  0  0  0  0  0  0  0  0  0
   -4.7058   -6.4311    0.1539 C   0  0  0  0  0  0  0  0  0  0  0  0
   -3.4050   -6.1134   -0.2325 C   0  0  0  0  0  0  0  0  0  0  0  0
   -2.9298   -4.8050   -0.1021 C   0  0  0  0  0  0  0  0  0  0  0  0
   -6.8083   -5.7965    0.9958 O   0  0  0  0  0  0  0  0  0  0  0  0
    1.7248   -6.8206    1.3241 O   0  0  0  0  0  0  0  0  0  0  0  0
    0.5193    2.3256   -0.6360 H   0  0  0  0  0  0  0  0  0  0  0  0
   -2.7635    0.2403    1.1229 H   0  0  0  0  0  0  0  0  0  0  0  0
   -1.6403    2.3370    0.6018 H   0  0  0  0  0  0  0  0  0  0  0  0
    4.0685   -3.7697   -2.2068 H   0  0  0  0  0  0  0  0  0  0  0  0
    4.8910   -6.0716   -1.8551 H   0  0  0  0  0  0  0  0  0  0  0  0
    3.7723   -7.5596   -0.2303 H   0  0  0  0  0  0  0  0  0  0  0  0
    1.0473   -4.4024    0.8229 H   0  0  0  0  0  0  0  0  0  0  0  0
   -5.7628   -3.3414    1.1101 H   0  0  0  0  0  0  0  0  0  0  0  0
   -5.0675   -7.4529    0.0817 H   0  0  0  0  0  0  0  0  0  0  0  0
   -2.7517   -6.8917   -0.6222 H   0  0  0  0  0  0  0  0  0  0  0  0
   -1.9095   -4.5863   -0.4056 H   0  0  0  0  0  0  0  0  0  0  0  0
   -7.2396   -5.0500    1.4428 H   0  0  0  0  0  0  0  0  0  0  0  0
    2.1461   -7.6951    1.3415 H   0  0  0  0  0  0  0  0  0  0  0  0
  1  2  2  0  0  0  0
  1 28  1  0  0  0  0
  2  3  1  0  0  0  0
  2  7  1  0  0  0  0
  3  4  2  0  0  0  0
  3  8  1  0  0  0  0
  4  5  1  0  0  0  0
  4  9  1  0  0  0  0
  5  6  2  0  0  0  0
  5 29  1  0  0  0  0
  6  1  1  0  0  0  0
  6 30  1  0  0  0  0
  8 13  1  0  0  0  0
  9 10  1  0  0  0  0
 10 11  1  0  0  0  0
 10 12  2  0  0  0  0
 11 21  2  0  0  0  0
 13 14  1  0  0  0  0
 13 15  2  0  0  0  0
 14 16  2  0  0  0  0
 16 17  1  0  0  0  0
 16 31  1  0  0  0  0
 17 18  2  0  0  0  0
 17 32  1  0  0  0  0
 18 19  1  0  0  0  0
 18 33  1  0  0  0  0
 19 20  2  0  0  0  0
 19 27  1  0  0  0  0
 20 14  1  0  0  0  0
 20 34  1  0  0  0  0
 21 22  1  0  0  0  0
 21 35  1  0  0  0  0
 22 23  2  0  0  0  0
 22 26  1  0  0  0  0
 23 24  1  0  0  0  0
 23 36  1  0  0  0  0
 24 25  2  0  0  0  0
 24 37  1  0  0  0  0
 25 11  1  0  0  0  0
 25 38  1  0  0  0  0
 26 39  1  0  0  0  0
 27 40  1  0  0  0  0
M  END
>  <Mol_ID>
2661

>  <Formula>
C20H13FO6

>  <MolWeight>
368.3120232

>  <Cat>
S7927

>  <Name>
WZB117

>  <Synonyms>
N/A

>  <Target>
GLUT

>  <Form>
free base

>  <CAS>
1223397-11-2

>  <URL>
http://selleckchem.com/products/wzb117.html

$$$$
