Xanthone.cdx
 OpenBabel08302521253D

 23 25  0  0  0  0  0  0  0  0999 V2000
   -3.6649    0.4134    0.0467 C   0  0  0  0  0  0  0  0  0  0  0  0
   -3.5929   -0.9807    0.0557 C   0  0  0  0  0  0  0  0  0  0  0  0
   -2.3511   -1.6184    0.0182 C   0  0  0  0  0  0  0  0  0  0  0  0
   -1.1776   -0.8630   -0.0193 C   0  0  0  0  0  0  0  0  0  0  0  0
   -1.2536    0.5283   -0.0179 C   0  0  0  0  0  0  0  0  0  0  0  0
   -2.4945    1.1726    0.0084 C   0  0  0  0  0  0  0  0  0  0  0  0
   -0.0001   -1.5673   -0.0560 O   0  0  0  0  0  0  0  0  0  0  0  0
    1.1768   -0.8611   -0.0278 C   0  0  0  0  0  0  0  0  0  0  0  0
    1.2499    0.5301   -0.0054 C   0  0  0  0  0  0  0  0  0  0  0  0
   -0.0025    1.3021   -0.0273 C   0  0  0  0  0  0  0  0  0  0  0  0
    2.3511   -1.6152   -0.0153 C   0  0  0  0  0  0  0  0  0  0  0  0
    3.5920   -0.9758    0.0336 C   0  0  0  0  0  0  0  0  0  0  0  0
    3.6611    0.4181    0.0677 C   0  0  0  0  0  0  0  0  0  0  0  0
    2.4893    1.1760    0.0444 C   0  0  0  0  0  0  0  0  0  0  0  0
   -0.0029    2.5258   -0.0426 O   0  0  0  0  0  0  0  0  0  0  0  0
   -4.6326    0.9086    0.0730 H   0  0  0  0  0  0  0  0  0  0  0  0
   -4.5051   -1.5718    0.0928 H   0  0  0  0  0  0  0  0  0  0  0  0
   -2.2994   -2.7041    0.0237 H   0  0  0  0  0  0  0  0  0  0  0  0
   -2.5494    2.2591    0.0045 H   0  0  0  0  0  0  0  0  0  0  0  0
    2.3019   -2.7007   -0.0399 H   0  0  0  0  0  0  0  0  0  0  0  0
    4.5056   -1.5655    0.0488 H   0  0  0  0  0  0  0  0  0  0  0  0
    4.6278    0.9143    0.1127 H   0  0  0  0  0  0  0  0  0  0  0  0
    2.5420    2.2621    0.0698 H   0  0  0  0  0  0  0  0  0  0  0  0
  1  2  2  0  0  0  0
  1 16  1  0  0  0  0
  2  3  1  0  0  0  0
  2 17  1  0  0  0  0
  3  4  2  0  0  0  0
  3 18  1  0  0  0  0
  4  5  1  0  0  0  0
  4  7  1  0  0  0  0
  5  6  2  0  0  0  0
  6  1  1  0  0  0  0
  6 19  1  0  0  0  0
  7  8  1  0  0  0  0
  8  9  2  0  0  0  0
  8 11  1  0  0  0  0
  9 10  1  0  0  0  0
 10  5  1  0  0  0  0
 10 15  2  0  0  0  0
 11 12  2  0  0  0  0
 11 20  1  0  0  0  0
 12 13  1  0  0  0  0
 12 21  1  0  0  0  0
 13 14  2  0  0  0  0
 13 22  1  0  0  0  0
 14  9  1  0  0  0  0
 14 23  1  0  0  0  0
M  END
>  <Mol_ID>
491

>  <Formula>
C13H8O2

>  <MolWeight>
196.20142

>  <Cat>
S2372

>  <Name>
Xanthone

>  <Synonyms>
Genicide

>  <Target>
ADC Cytotoxin

>  <Form>
free base

>  <CAS>
90-47-1

>  <URL>
http://selleckchem.com/products/Xanthone(Genicide).html

$$$$
