XAV-939.cdx
 OpenBabel08302521433D

 32 34  0  0  0  0  0  0  0  0999 V2000
   -0.1433    0.9129   -1.0157 C   0  0  0  0  0  0  0  0  0  0  0  0
   -0.9935   -0.1984   -0.9992 C   0  0  0  0  0  0  0  0  0  0  0  0
   -0.9466   -1.1483    0.0376 C   0  0  0  0  0  0  0  0  0  0  0  0
    0.0117   -0.9463    1.0488 C   0  0  0  0  0  0  0  0  0  0  0  0
    0.8667    0.1616    1.0373 C   0  0  0  0  0  0  0  0  0  0  0  0
    0.7881    1.1098    0.0096 C   0  0  0  0  0  0  0  0  0  0  0  0
    1.6841    2.3232    0.0301 C   0  0  0  0  0  0  0  0  0  0  0  0
    1.4794    3.1692   -1.0180 F   0  0  0  0  0  0  0  0  0  0  0  0
    1.5114    3.0749    1.1529 F   0  0  0  0  0  0  0  0  0  0  0  0
    3.0058    1.9992   -0.0038 F   0  0  0  0  0  0  0  0  0  0  0  0
   -1.8673   -2.3022    0.0686 C   0  0  0  0  0  0  0  0  0  0  0  0
   -2.7348   -2.4428   -0.9450 N   0  0  0  0  0  0  0  0  0  0  0  0
   -3.5358   -3.5084   -0.8633 C   0  0  0  0  0  0  0  0  0  0  0  0
   -3.5391   -4.4542    0.1394 C   0  0  0  0  0  0  0  0  0  0  0  0
   -2.6347   -4.1984    1.1542 C   0  0  0  0  0  0  0  0  0  0  0  0
   -1.7930   -3.1394    1.1212 N   0  0  0  0  0  0  0  0  0  0  0  0
   -4.4114   -3.5933   -1.8993 O   0  0  0  0  0  0  0  0  0  0  0  0
   -4.5154   -5.5861    0.1115 C   0  0  0  0  0  0  0  0  0  0  0  0
   -4.1234   -6.9630    1.2247 S   0  0  0  0  0  0  0  0  0  0  0  0
   -3.6751   -5.9679    2.6698 C   0  0  0  0  0  0  0  0  0  0  0  0
   -2.4695   -5.0973    2.3511 C   0  0  0  0  0  0  0  0  0  0  0  0
   -0.2235    1.6273   -1.8337 H   0  0  0  0  0  0  0  0  0  0  0  0
   -1.7105   -0.3144   -1.8111 H   0  0  0  0  0  0  0  0  0  0  0  0
    0.0947   -1.6586    1.8695 H   0  0  0  0  0  0  0  0  0  0  0  0
    1.5897    0.2835    1.8428 H   0  0  0  0  0  0  0  0  0  0  0  0
   -4.1562   -2.8048   -2.4129 H   0  0  0  0  0  0  0  0  0  0  0  0
   -4.5744   -6.0081   -0.8974 H   0  0  0  0  0  0  0  0  0  0  0  0
   -5.5096   -5.2105    0.3772 H   0  0  0  0  0  0  0  0  0  0  0  0
   -4.5375   -5.3605    2.9649 H   0  0  0  0  0  0  0  0  0  0  0  0
   -3.4429   -6.6395    3.5023 H   0  0  0  0  0  0  0  0  0  0  0  0
   -2.2565   -4.4742    3.2295 H   0  0  0  0  0  0  0  0  0  0  0  0
   -1.5827   -5.7236    2.1890 H   0  0  0  0  0  0  0  0  0  0  0  0
  1  2  2  0  0  0  0
  1 22  1  0  0  0  0
  2  3  1  0  0  0  0
  2 23  1  0  0  0  0
  3  4  2  0  0  0  0
  3 11  1  0  0  0  0
  4  5  1  0  0  0  0
  4 24  1  0  0  0  0
  5  6  2  0  0  0  0
  5 25  1  0  0  0  0
  6  1  1  0  0  0  0
  6  7  1  0  0  0  0
  7  8  1  0  0  0  0
  7  9  1  0  0  0  0
  7 10  1  0  0  0  0
 11 12  2  0  0  0  0
 12 13  1  0  0  0  0
 13 14  2  0  0  0  0
 13 17  1  0  0  0  0
 14 15  1  0  0  0  0
 14 18  1  0  0  0  0
 15 16  2  0  0  0  0
 16 11  1  0  0  0  0
 17 26  1  0  0  0  0
 18 19  1  0  0  0  0
 18 27  1  0  0  0  0
 18 28  1  0  0  0  0
 19 20  1  0  0  0  0
 20 21  1  0  0  0  0
 20 29  1  0  0  0  0
 20 30  1  0  0  0  0
 21 15  1  0  0  0  0
 21 31  1  0  0  0  0
 21 32  1  0  0  0  0
M  END
>  <Mol_ID>
105

>  <Formula>
C14H11F3N2OS

>  <MolWeight>
312.3101496

>  <Cat>
S1180

>  <Name>
XAV-939

>  <Synonyms>
NVP-XAV939

>  <Target>
PARP,Wnt/beta-catenin

>  <Form>
free base

>  <CAS>
284028-89-3

>  <URL>
http://selleckchem.com/products/XAV-939.html

$$$$
