XENAZINE (tetrabenazine).cdx
 OpenBabel08302519503D

 50 52  0  0  0  0  0  0  0  0999 V2000
    2.3019   -1.3154    0.0644 C   0  0  0  0  0  0  0  0  0  0  0  0
    3.6323   -1.9443   -0.3101 C   0  0  3  0  0  0  0  0  0  0  0  0
    4.1089   -1.2072   -1.5655 C   0  0  0  0  0  0  0  0  0  0  0  0
    4.2348    0.2422   -1.3844 N   0  0  3  0  0  0  0  0  0  0  0  0
    2.9607    0.8540   -0.9454 C   0  0  3  0  0  0  0  0  0  0  0  0
    2.3464    0.1773    0.2905 C   0  0  0  0  0  0  0  0  0  0  0  0
    5.3532    0.6023   -0.5041 C   0  0  0  0  0  0  0  0  0  0  0  0
    5.6151    2.1090   -0.5374 C   0  0  0  0  0  0  0  0  0  0  0  0
    4.3537    2.9298   -0.4559 C   0  0  0  0  0  0  0  0  0  0  0  0
    3.1052    2.3488   -0.7093 C   0  0  0  0  0  0  0  0  0  0  0  0
    4.4446    4.3076   -0.2054 C   0  0  0  0  0  0  0  0  0  0  0  0
    3.3068    5.1280   -0.1907 C   0  0  0  0  0  0  0  0  0  0  0  0
    2.0548    4.5501   -0.4624 C   0  0  0  0  0  0  0  0  0  0  0  0
    1.9717    3.1722   -0.7177 C   0  0  0  0  0  0  0  0  0  0  0  0
    1.2789   -1.9675    0.2558 O   0  0  0  0  0  0  0  0  0  0  0  0
    3.5614   -3.4664   -0.5057 C   0  0  0  0  0  0  0  0  0  0  0  0
    4.9193   -4.1109   -0.8642 C   0  0  0  0  0  0  0  0  0  0  0  0
    5.9956   -3.8316    0.1883 C   0  0  0  0  0  0  0  0  0  0  0  0
    4.7651   -5.6180   -1.0647 C   0  0  0  0  0  0  0  0  0  0  0  0
    0.8239    5.1501   -0.5215 O   0  0  0  0  0  0  0  0  0  0  0  0
    0.7264    6.5454   -0.2885 C   0  0  0  0  0  0  0  0  0  0  0  0
    3.3669    6.4707    0.0689 O   0  0  0  0  0  0  0  0  0  0  0  0
    4.6294    7.0381    0.3931 C   0  0  0  0  0  0  0  0  0  0  0  0
    4.2935   -1.7474    0.5403 H   0  0  0  0  0  0  0  0  0  0  0  0
    3.4077   -1.3937   -2.3910 H   0  0  0  0  0  0  0  0  0  0  0  0
    5.0738   -1.5898   -1.9106 H   0  0  0  0  0  0  0  0  0  0  0  0
    2.2618    0.7313   -1.7860 H   0  0  0  0  0  0  0  0  0  0  0  0
    1.3280    0.5403    0.4736 H   0  0  0  0  0  0  0  0  0  0  0  0
    2.9286    0.3677    1.2004 H   0  0  0  0  0  0  0  0  0  0  0  0
    5.1717    0.2899    0.5308 H   0  0  0  0  0  0  0  0  0  0  0  0
    6.2707    0.0949   -0.8285 H   0  0  0  0  0  0  0  0  0  0  0  0
    6.2808    2.3664    0.2960 H   0  0  0  0  0  0  0  0  0  0  0  0
    6.1285    2.3680   -1.4720 H   0  0  0  0  0  0  0  0  0  0  0  0
    5.4353    4.7168   -0.0324 H   0  0  0  0  0  0  0  0  0  0  0  0
    0.9934    2.7426   -0.9305 H   0  0  0  0  0  0  0  0  0  0  0  0
    3.1761   -3.9253    0.4154 H   0  0  0  0  0  0  0  0  0  0  0  0
    2.8282   -3.7027   -1.2877 H   0  0  0  0  0  0  0  0  0  0  0  0
    5.2666   -3.7050   -1.8207 H   0  0  0  0  0  0  0  0  0  0  0  0
    5.6893   -4.1994    1.1730 H   0  0  0  0  0  0  0  0  0  0  0  0
    6.9369   -4.3218   -0.0802 H   0  0  0  0  0  0  0  0  0  0  0  0
    6.2105   -2.7617    0.2750 H   0  0  0  0  0  0  0  0  0  0  0  0
    4.0308   -5.8316   -1.8483 H   0  0  0  0  0  0  0  0  0  0  0  0
    5.7181   -6.0613   -1.3739 H   0  0  0  0  0  0  0  0  0  0  0  0
    4.4418   -6.1139   -0.1442 H   0  0  0  0  0  0  0  0  0  0  0  0
    1.0298    6.7987    0.7321 H   0  0  0  0  0  0  0  0  0  0  0  0
    1.2810    7.1162   -1.0399 H   0  0  0  0  0  0  0  0  0  0  0  0
   -0.3279    6.8219   -0.3885 H   0  0  0  0  0  0  0  0  0  0  0  0
    5.0654    6.5636    1.2788 H   0  0  0  0  0  0  0  0  0  0  0  0
    5.3114    6.9886   -0.4620 H   0  0  0  0  0  0  0  0  0  0  0  0
    4.4698    8.0941    0.6305 H   0  0  0  0  0  0  0  0  0  0  0  0
  1  2  1  0  0  0  0
  1 15  2  0  0  0  0
  2  3  1  0  0  0  0
  2 16  1  0  0  0  0
  2 24  1  0  0  0  0
  3  4  1  0  0  0  0
  3 25  1  0  0  0  0
  3 26  1  0  0  0  0
  4  5  1  0  0  0  0
  4  7  1  0  0  0  0
  5  6  1  0  0  0  0
  5 27  1  0  0  0  0
  6  1  1  0  0  0  0
  6 28  1  0  0  0  0
  6 29  1  0  0  0  0
  7  8  1  0  0  0  0
  7 30  1  0  0  0  0
  7 31  1  0  0  0  0
  8  9  1  0  0  0  0
  8 32  1  0  0  0  0
  8 33  1  0  0  0  0
  9 10  2  0  0  0  0
  9 11  1  0  0  0  0
 10  5  1  0  0  0  0
 11 12  2  0  0  0  0
 11 34  1  0  0  0  0
 12 13  1  0  0  0  0
 12 22  1  0  0  0  0
 13 14  2  0  0  0  0
 13 20  1  0  0  0  0
 14 10  1  0  0  0  0
 14 35  1  0  0  0  0
 16 17  1  0  0  0  0
 16 36  1  0  0  0  0
 16 37  1  0  0  0  0
 17 18  1  0  0  0  0
 17 19  1  0  0  0  0
 17 38  1  0  0  0  0
 18 39  1  0  0  0  0
 18 40  1  0  0  0  0
 18 41  1  0  0  0  0
 19 42  1  0  0  0  0
 19 43  1  0  0  0  0
 19 44  1  0  0  0  0
 20 21  1  0  0  0  0
 21 45  1  0  0  0  0
 21 46  1  0  0  0  0
 21 47  1  0  0  0  0
 22 23  1  0  0  0  0
 23 48  1  0  0  0  0
 23 49  1  0  0  0  0
 23 50  1  0  0  0  0
M  END
>  <Mol_ID>
1587

>  <Formula>
C19H27NO3

>  <MolWeight>
317.42258

>  <Cat>
S1789

>  <Name>
Tetrabenazine (Xenazine)

>  <Synonyms>
Xenazine,Ro 1-9569

>  <Target>
Dopamine Receptor

>  <Form>
free base

>  <CAS>
58-46-8

>  <URL>
http://selleckchem.com/products/Tetrabenazine(Nitoman).html

$$$$
