XL388.cdx
 OpenBabel08302521393D

 54 57  0  0  0  0  0  0  0  0999 V2000
    0.8704   -0.0688    0.0225 C   0  0  0  0  0  0  0  0  0  0  0  0
    0.2579    0.0544   -1.1622 N   0  0  0  0  0  0  0  0  0  0  0  0
   -1.0978    0.1958   -1.1554 C   0  0  0  0  0  0  0  0  0  0  0  0
   -1.9105    0.2399   -0.0174 C   0  0  0  0  0  0  0  0  0  0  0  0
   -1.2181    0.0819    1.1908 C   0  0  0  0  0  0  0  0  0  0  0  0
    0.1714   -0.0737    1.2148 C   0  0  0  0  0  0  0  0  0  0  0  0
    2.2593   -0.1325    0.0164 N   0  0  0  0  0  0  0  0  0  0  0  0
   -3.3905    0.3957   -0.0794 C   0  0  0  0  0  0  0  0  0  0  0  0
   -4.0422    1.0185   -1.1565 C   0  0  0  0  0  0  0  0  0  0  0  0
   -5.4427    1.0763   -1.2304 C   0  0  0  0  0  0  0  0  0  0  0  0
   -6.2249    0.4333   -0.2732 C   0  0  0  0  0  0  0  0  0  0  0  0
   -5.6276   -0.2152    0.8045 C   0  0  0  0  0  0  0  0  0  0  0  0
   -4.2235   -0.1324    0.9303 C   0  0  0  0  0  0  0  0  0  0  0  0
   -7.5860    0.5221   -0.3813 O   0  0  0  0  0  0  0  0  0  0  0  0
   -8.1716   -0.7286   -0.7758 C   0  0  0  0  0  0  0  0  0  0  0  0
   -8.4202   -1.6646    0.4124 C   0  0  0  0  0  0  0  0  0  0  0  0
   -7.1804   -2.1340    1.0508 N   0  0  0  0  0  0  0  0  0  0  0  0
   -6.4396   -1.0666    1.7625 C   0  0  0  0  0  0  0  0  0  0  0  0
   -6.7990   -3.4825    0.8445 C   0  0  0  0  0  0  0  0  0  0  0  0
   -7.4793   -4.2464    0.1611 O   0  0  0  0  0  0  0  0  0  0  0  0
   -5.5384   -4.0368    1.4544 C   0  0  0  0  0  0  0  0  0  0  0  0
   -4.3810   -3.2814    1.3157 C   0  0  0  0  0  0  0  0  0  0  0  0
   -3.2205   -3.5478    2.0325 C   0  0  0  0  0  0  0  0  0  0  0  0
   -3.1561   -4.7121    2.7759 C   0  0  0  0  0  0  0  0  0  0  0  0
   -4.2189   -5.6015    2.7508 C   0  0  0  0  0  0  0  0  0  0  0  0
   -5.4228   -5.2927    2.0742 C   0  0  0  0  0  0  0  0  0  0  0  0
   -6.4243   -6.4073    1.9687 C   0  0  0  0  0  0  0  0  0  0  0  0
   -4.0949   -6.8033    3.3342 F   0  0  0  0  0  0  0  0  0  0  0  0
   -1.6866   -5.0959    3.6678 S   0  0  0  0  0  0  0  0  0  0  0  0
   -1.0080   -6.4829    2.7977 C   0  0  0  0  0  0  0  0  0  0  0  0
   -0.7737   -3.9864    3.4788 O   0  0  0  0  0  0  0  0  0  0  0  0
   -2.0749   -5.5048    5.0042 O   0  0  0  0  0  0  0  0  0  0  0  0
   -1.5182    0.2597   -2.1562 H   0  0  0  0  0  0  0  0  0  0  0  0
   -1.7342    0.0960    2.1458 H   0  0  0  0  0  0  0  0  0  0  0  0
    0.6931   -0.1749    2.1602 H   0  0  0  0  0  0  0  0  0  0  0  0
    2.5636   -0.1606   -0.9530 H   0  0  0  0  0  0  0  0  0  0  0  0
    2.6119   -0.9136    0.5556 H   0  0  0  0  0  0  0  0  0  0  0  0
   -3.4733    1.4870   -1.9578 H   0  0  0  0  0  0  0  0  0  0  0  0
   -5.9201    1.5946   -2.0584 H   0  0  0  0  0  0  0  0  0  0  0  0
   -3.7714   -0.5957    1.8043 H   0  0  0  0  0  0  0  0  0  0  0  0
   -7.5810   -1.2120   -1.5624 H   0  0  0  0  0  0  0  0  0  0  0  0
   -9.1432   -0.4710   -1.2152 H   0  0  0  0  0  0  0  0  0  0  0  0
   -9.0055   -1.1464    1.1833 H   0  0  0  0  0  0  0  0  0  0  0  0
   -9.0214   -2.5132    0.0716 H   0  0  0  0  0  0  0  0  0  0  0  0
   -5.8115   -1.5099    2.5397 H   0  0  0  0  0  0  0  0  0  0  0  0
   -7.1586   -0.4265    2.2888 H   0  0  0  0  0  0  0  0  0  0  0  0
   -4.3819   -2.4718    0.6032 H   0  0  0  0  0  0  0  0  0  0  0  0
   -2.3815   -2.8582    1.9788 H   0  0  0  0  0  0  0  0  0  0  0  0
   -5.9860   -7.2245    1.3809 H   0  0  0  0  0  0  0  0  0  0  0  0
   -6.6792   -6.7966    2.9586 H   0  0  0  0  0  0  0  0  0  0  0  0
   -7.3560   -6.1303    1.4813 H   0  0  0  0  0  0  0  0  0  0  0  0
   -0.8306   -6.1908    1.7603 H   0  0  0  0  0  0  0  0  0  0  0  0
   -0.0623   -6.7490    3.2735 H   0  0  0  0  0  0  0  0  0  0  0  0
   -1.6997   -7.3235    2.8523 H   0  0  0  0  0  0  0  0  0  0  0  0
  1  2  2  0  0  0  0
  1  7  1  0  0  0  0
  2  3  1  0  0  0  0
  3  4  2  0  0  0  0
  3 33  1  0  0  0  0
  4  5  1  0  0  0  0
  4  8  1  0  0  0  0
  5  6  2  0  0  0  0
  5 34  1  0  0  0  0
  6  1  1  0  0  0  0
  6 35  1  0  0  0  0
  7 36  1  0  0  0  0
  7 37  1  0  0  0  0
  8  9  2  0  0  0  0
  9 10  1  0  0  0  0
  9 38  1  0  0  0  0
 10 11  2  0  0  0  0
 10 39  1  0  0  0  0
 11 12  1  0  0  0  0
 11 14  1  0  0  0  0
 12 13  2  0  0  0  0
 13  8  1  0  0  0  0
 13 40  1  0  0  0  0
 14 15  1  0  0  0  0
 15 16  1  0  0  0  0
 15 41  1  0  0  0  0
 15 42  1  0  0  0  0
 16 17  1  0  0  0  0
 16 43  1  0  0  0  0
 16 44  1  0  0  0  0
 17 18  1  0  0  0  0
 17 19  1  0  0  0  0
 18 12  1  0  0  0  0
 18 45  1  0  0  0  0
 18 46  1  0  0  0  0
 19 20  2  0  0  0  0
 19 21  1  0  0  0  0
 21 22  2  0  0  0  0
 22 23  1  0  0  0  0
 22 47  1  0  0  0  0
 23 24  2  0  0  0  0
 23 48  1  0  0  0  0
 24 25  1  0  0  0  0
 24 29  1  0  0  0  0
 25 26  2  0  0  0  0
 25 28  1  0  0  0  0
 26 21  1  0  0  0  0
 26 27  1  0  0  0  0
 27 49  1  0  0  0  0
 27 50  1  0  0  0  0
 27 51  1  0  0  0  0
 29 30  1  0  0  0  0
 29 31  2  0  0  0  0
 29 32  2  0  0  0  0
 30 52  1  0  0  0  0
 30 53  1  0  0  0  0
 30 54  1  0  0  0  0
M  END
>  <Mol_ID>
8157

>  <Formula>
C23H22FN3O4S

>  <MolWeight>
455.5018832

>  <Cat>
S7035

>  <Name>
XL388

>  <Synonyms>
N/A

>  <Target>
mTOR

>  <Form>
free base

>  <CAS>
1251156-08-7

>  <URL>
http://selleckchem.com/products/xl388.html

$$$$
