XMD-17-51
 OpenBabel08302521353D

 54 58  0  0  0  0  0  0  0  0999 V2000
    1.2011    0.3824   -0.7901 O   0  0  0  0  0  0  0  0  0  0  0  0
    7.6462   -3.3566    6.1099 N   0  0  0  0  0  0  0  0  0  0  0  0
    8.4354   -1.2361    9.0525 N   0  0  0  0  0  0  0  0  0  0  0  0
    7.4870   -2.0696    5.7457 N   0  0  0  0  0  0  0  0  0  0  0  0
    5.8869   -3.9401    3.1475 N   0  0  0  0  0  0  0  0  0  0  0  0
    5.1837    0.0421    0.6673 N   0  0  0  0  0  0  0  0  0  0  0  0
    2.8804   -1.1122   -0.5208 N   0  0  0  0  0  0  0  0  0  0  0  0
    5.5424   -1.9657    1.8627 N   0  0  0  0  0  0  0  0  0  0  0  0
    4.1063   -3.8237    1.6560 N   0  0  0  0  0  0  0  0  0  0  0  0
    8.0746   -3.6943    7.4669 C   0  0  0  0  0  0  0  0  0  0  0  0
    7.0632   -3.2465    8.5307 C   0  0  0  0  0  0  0  0  0  0  0  0
    9.4607   -3.1569    7.8225 C   0  0  0  0  0  0  0  0  0  0  0  0
    7.0915   -1.7361    8.7542 C   0  0  0  0  0  0  0  0  0  0  0  0
    9.4524   -1.6521    8.0835 C   0  0  0  0  0  0  0  0  0  0  0  0
    7.2364   -4.2347    5.1388 C   0  0  0  0  0  0  0  0  0  0  0  0
    6.6026   -3.4690    4.1892 C   0  0  0  0  0  0  0  0  0  0  0  0
    6.8100   -2.1392    4.5991 C   0  0  0  0  0  0  0  0  0  0  0  0
    4.7955   -1.2596    0.9949 C   0  0  0  0  0  0  0  0  0  0  0  0
    3.6623   -1.8005    0.4269 C   0  0  0  0  0  0  0  0  0  0  0  0
    4.3767    1.1837    0.7678 C   0  0  0  0  0  0  0  0  0  0  0  0
    5.1657   -3.2103    2.1969 C   0  0  0  0  0  0  0  0  0  0  0  0
    2.9983    1.1863    0.5022 C   0  0  0  0  0  0  0  0  0  0  0  0
    2.2912    0.1182   -0.2750 C   0  0  0  0  0  0  0  0  0  0  0  0
    3.3737   -3.1009    0.7821 C   0  0  0  0  0  0  0  0  0  0  0  0
    6.5072    0.1277    0.0694 C   0  0  0  0  0  0  0  0  0  0  0  0
    4.9513    2.3742    1.2628 C   0  0  0  0  0  0  0  0  0  0  0  0
    2.2347    2.3463    0.7535 C   0  0  0  0  0  0  0  0  0  0  0  0
    2.8371   -1.6080   -1.8801 C   0  0  0  0  0  0  0  0  0  0  0  0
    4.1880    3.5211    1.4928 C   0  0  0  0  0  0  0  0  0  0  0  0
    2.8247    3.5059    1.2503 C   0  0  0  0  0  0  0  0  0  0  0  0
    8.3938   -0.2144    9.0358 H   0  0  0  0  0  0  0  0  0  0  0  0
    5.5436   -4.8918    3.1464 H   0  0  0  0  0  0  0  0  0  0  0  0
    8.1203   -4.7917    7.4895 H   0  0  0  0  0  0  0  0  0  0  0  0
    6.0482   -3.5657    8.2652 H   0  0  0  0  0  0  0  0  0  0  0  0
    7.3087   -3.7420    9.4801 H   0  0  0  0  0  0  0  0  0  0  0  0
    9.8069   -3.6650    8.7331 H   0  0  0  0  0  0  0  0  0  0  0  0
   10.1842   -3.3971    7.0346 H   0  0  0  0  0  0  0  0  0  0  0  0
    6.6525   -1.2000    7.9070 H   0  0  0  0  0  0  0  0  0  0  0  0
    6.4488   -1.5012    9.6108 H   0  0  0  0  0  0  0  0  0  0  0  0
   10.4307   -1.3723    8.4917 H   0  0  0  0  0  0  0  0  0  0  0  0
    9.3521   -1.0928    7.1477 H   0  0  0  0  0  0  0  0  0  0  0  0
    7.3721   -5.3010    5.2429 H   0  0  0  0  0  0  0  0  0  0  0  0
    6.4726   -1.2196    4.1398 H   0  0  0  0  0  0  0  0  0  0  0  0
    2.4928   -3.6049    0.3962 H   0  0  0  0  0  0  0  0  0  0  0  0
    7.3014   -0.1547    0.7696 H   0  0  0  0  0  0  0  0  0  0  0  0
    6.5674   -0.5476   -0.8042 H   0  0  0  0  0  0  0  0  0  0  0  0
    6.7402    1.1260   -0.3228 H   0  0  0  0  0  0  0  0  0  0  0  0
    6.0084    2.4066    1.5135 H   0  0  0  0  0  0  0  0  0  0  0  0
    1.1696    2.3667    0.5235 H   0  0  0  0  0  0  0  0  0  0  0  0
    1.8083   -1.8341   -2.1657 H   0  0  0  0  0  0  0  0  0  0  0  0
    3.2081   -0.8075   -2.5353 H   0  0  0  0  0  0  0  0  0  0  0  0
    3.4825   -2.4798   -2.0201 H   0  0  0  0  0  0  0  0  0  0  0  0
    4.6626    4.4220    1.8734 H   0  0  0  0  0  0  0  0  0  0  0  0
    2.2196    4.3915    1.4224 H   0  0  0  0  0  0  0  0  0  0  0  0
  1 23  2  0  0  0  0
  2  4  1  0  0  0  0
  2 10  1  0  0  0  0
  2 15  1  0  0  0  0
  3 13  1  0  0  0  0
  3 14  1  0  0  0  0
  3 31  1  0  0  0  0
  4 17  2  0  0  0  0
  5 16  1  0  0  0  0
  5 21  1  0  0  0  0
  5 32  1  0  0  0  0
  6 18  1  0  0  0  0
  6 20  1  0  0  0  0
  6 25  1  0  0  0  0
  7 19  1  0  0  0  0
  7 23  1  0  0  0  0
  7 28  1  0  0  0  0
  8 18  2  0  0  0  0
  8 21  1  0  0  0  0
  9 21  2  0  0  0  0
  9 24  1  0  0  0  0
 10 11  1  0  0  0  0
 10 12  1  0  0  0  0
 10 33  1  0  0  0  0
 11 13  1  0  0  0  0
 11 34  1  0  0  0  0
 11 35  1  0  0  0  0
 12 14  1  0  0  0  0
 12 36  1  0  0  0  0
 12 37  1  0  0  0  0
 13 38  1  0  0  0  0
 13 39  1  0  0  0  0
 14 40  1  0  0  0  0
 14 41  1  0  0  0  0
 15 16  2  0  0  0  0
 15 42  1  0  0  0  0
 16 17  1  0  0  0  0
 17 43  1  0  0  0  0
 18 19  1  0  0  0  0
 19 24  2  0  0  0  0
 20 22  2  0  0  0  0
 20 26  1  0  0  0  0
 22 23  1  0  0  0  0
 22 27  1  0  0  0  0
 24 44  1  0  0  0  0
 25 45  1  0  0  0  0
 25 46  1  0  0  0  0
 25 47  1  0  0  0  0
 26 29  2  0  0  0  0
 26 48  1  0  0  0  0
 27 30  2  0  0  0  0
 27 49  1  0  0  0  0
 28 50  1  0  0  0  0
 28 51  1  0  0  0  0
 28 52  1  0  0  0  0
 29 30  1  0  0  0  0
 29 53  1  0  0  0  0
 30 54  1  0  0  0  0
M  END
>  <Mol_ID>
6620

>  <Formula>
C21H24N8O

>  <MolWeight>
404.46826

>  <Cat>
S0177

>  <Name>
XMD-17-51

>  <Synonyms>
XMD17-51

>  <Target>
AMPK

>  <Form>
Free base

>  <CAS>
1628614-50-5

>  <URL>
http://www.selleckchem.com/products/xmd-17-51.html

$$$$
