XMD8-87.cdx
 OpenBabel08302520433D

 60 64  0  0  0  0  0  0  0  0999 V2000
    1.1182    0.3975    0.2697 C   0  0  0  0  0  0  0  0  0  0  0  0
    0.4421   -0.8222    0.1192 C   0  0  0  0  0  0  0  0  0  0  0  0
   -0.9556   -0.8962    0.0221 C   0  0  0  0  0  0  0  0  0  0  0  0
   -1.6494    0.3159    0.0224 C   0  0  0  0  0  0  0  0  0  0  0  0
   -0.9915    1.5516    0.1175 C   0  0  0  0  0  0  0  0  0  0  0  0
    0.3923    1.6288    0.2392 C   0  0  0  0  0  0  0  0  0  0  0  0
    1.0342    2.8730    0.4253 N   0  0  0  0  0  0  0  0  0  0  0  0
   -1.5735   -2.1460    0.0412 N   0  0  0  0  0  0  0  0  0  0  0  0
    0.7311    4.2186    0.1175 C   0  0  0  0  0  0  0  0  0  0  0  0
   -0.5071    4.7944   -0.0541 N   0  0  0  0  0  0  0  0  0  0  0  0
   -0.5777    6.0196   -0.6768 C   0  0  0  0  0  0  0  0  0  0  0  0
    0.5851    6.4968   -1.2565 C   0  0  0  0  0  0  0  0  0  0  0  0
    1.7798    6.0206   -0.7951 C   0  0  0  0  0  0  0  0  0  0  0  0
    1.8693    4.8962   -0.0868 N   0  0  0  0  0  0  0  0  0  0  0  0
   -1.8000    6.8768   -0.7790 N   0  0  0  0  0  0  0  0  0  0  0  0
   -1.9843    8.2408   -1.3261 C   0  0  0  0  0  0  0  0  0  0  0  0
   -0.9627    9.1019   -1.7736 C   0  0  0  0  0  0  0  0  0  0  0  0
    0.4415    8.6811   -1.8144 C   0  0  0  0  0  0  0  0  0  0  0  0
    0.5624    7.4203   -2.3103 N   0  0  0  0  0  0  0  0  0  0  0  0
   -3.2834    8.7949   -1.4722 C   0  0  0  0  0  0  0  0  0  0  0  0
   -3.5184   10.0863   -2.0121 C   0  0  0  0  0  0  0  0  0  0  0  0
   -2.4633   10.8767   -2.4455 C   0  0  0  0  0  0  0  0  0  0  0  0
   -1.1763   10.3876   -2.3194 C   0  0  0  0  0  0  0  0  0  0  0  0
   -2.5468    6.7594    0.4976 C   0  0  0  0  0  0  0  0  0  0  0  0
    1.3585    9.3979   -1.4349 O   0  0  0  0  0  0  0  0  0  0  0  0
   -2.9455   -2.2315    0.5677 C   0  0  0  0  0  0  0  0  0  0  0  0
   -3.2662   -3.6946    0.9376 C   0  0  0  0  0  0  0  0  0  0  0  0
   -3.1201   -4.6132   -0.2140 N   0  0  0  0  0  0  0  0  0  0  0  0
   -1.7490   -4.4892   -0.7658 C   0  0  0  0  0  0  0  0  0  0  0  0
   -1.3601   -3.0279   -1.1275 C   0  0  0  0  0  0  0  0  0  0  0  0
   -3.3951   -5.9878    0.1999 C   0  0  0  0  0  0  0  0  0  0  0  0
    2.4957    0.4461    0.4351 O   0  0  0  0  0  0  0  0  0  0  0  0
    3.1154   -0.7694    0.8852 C   0  0  0  0  0  0  0  0  0  0  0  0
    0.9663   -1.7737    0.1239 H   0  0  0  0  0  0  0  0  0  0  0  0
   -2.7321    0.3320   -0.0483 H   0  0  0  0  0  0  0  0  0  0  0  0
   -1.5868    2.4582    0.1270 H   0  0  0  0  0  0  0  0  0  0  0  0
    2.0442    2.7847    0.3313 H   0  0  0  0  0  0  0  0  0  0  0  0
    2.7129    6.5181   -1.0346 H   0  0  0  0  0  0  0  0  0  0  0  0
   -0.2648    7.2079   -2.8699 H   0  0  0  0  0  0  0  0  0  0  0  0
   -4.1721    8.2381   -1.1856 H   0  0  0  0  0  0  0  0  0  0  0  0
   -4.5340   10.4624   -2.1027 H   0  0  0  0  0  0  0  0  0  0  0  0
   -2.6397   11.8606   -2.8726 H   0  0  0  0  0  0  0  0  0  0  0  0
   -0.3335   10.9850   -2.6741 H   0  0  0  0  0  0  0  0  0  0  0  0
   -2.4845    5.7696    0.9611 H   0  0  0  0  0  0  0  0  0  0  0  0
   -2.1683    7.4941    1.2224 H   0  0  0  0  0  0  0  0  0  0  0  0
   -3.6204    6.9424    0.3733 H   0  0  0  0  0  0  0  0  0  0  0  0
   -3.6648   -1.8659   -0.1755 H   0  0  0  0  0  0  0  0  0  0  0  0
   -3.0448   -1.6244    1.4761 H   0  0  0  0  0  0  0  0  0  0  0  0
   -4.2952   -3.7347    1.3130 H   0  0  0  0  0  0  0  0  0  0  0  0
   -2.6028   -4.0062    1.7565 H   0  0  0  0  0  0  0  0  0  0  0  0
   -1.0174   -4.8740   -0.0420 H   0  0  0  0  0  0  0  0  0  0  0  0
   -1.6671   -5.1038   -1.6707 H   0  0  0  0  0  0  0  0  0  0  0  0
   -1.9750   -2.6826   -1.9691 H   0  0  0  0  0  0  0  0  0  0  0  0
   -0.3146   -3.0223   -1.4580 H   0  0  0  0  0  0  0  0  0  0  0  0
   -3.3261   -6.6691   -0.6546 H   0  0  0  0  0  0  0  0  0  0  0  0
   -2.7053   -6.3366    0.9773 H   0  0  0  0  0  0  0  0  0  0  0  0
   -4.4167   -6.0718    0.5882 H   0  0  0  0  0  0  0  0  0  0  0  0
    2.7351   -1.0579    1.8724 H   0  0  0  0  0  0  0  0  0  0  0  0
    3.0020   -1.5952    0.1720 H   0  0  0  0  0  0  0  0  0  0  0  0
    4.1931   -0.6002    0.9787 H   0  0  0  0  0  0  0  0  0  0  0  0
  1  2  2  0  0  0  0
  1 32  1  0  0  0  0
  2  3  1  0  0  0  0
  2 34  1  0  0  0  0
  3  4  2  0  0  0  0
  3  8  1  0  0  0  0
  4  5  1  0  0  0  0
  4 35  1  0  0  0  0
  5  6  2  0  0  0  0
  5 36  1  0  0  0  0
  6  1  1  0  0  0  0
  6  7  1  0  0  0  0
  7  9  1  0  0  0  0
  7 37  1  0  0  0  0
  8 26  1  0  0  0  0
  9 10  2  0  0  0  0
 10 11  1  0  0  0  0
 11 12  2  0  0  0  0
 11 15  1  0  0  0  0
 12 13  1  0  0  0  0
 13 14  2  0  0  0  0
 13 38  1  0  0  0  0
 14  9  1  0  0  0  0
 15 16  1  0  0  0  0
 15 24  1  0  0  0  0
 16 17  2  0  0  0  0
 16 20  1  0  0  0  0
 17 18  1  0  0  0  0
 18 19  1  0  0  0  0
 18 25  2  0  0  0  0
 19 12  1  0  0  0  0
 19 39  1  0  0  0  0
 20 21  2  0  0  0  0
 20 40  1  0  0  0  0
 21 22  1  0  0  0  0
 21 41  1  0  0  0  0
 22 23  2  0  0  0  0
 22 42  1  0  0  0  0
 23 17  1  0  0  0  0
 23 43  1  0  0  0  0
 24 44  1  0  0  0  0
 24 45  1  0  0  0  0
 24 46  1  0  0  0  0
 26 27  1  0  0  0  0
 26 47  1  0  0  0  0
 26 48  1  0  0  0  0
 27 28  1  0  0  0  0
 27 49  1  0  0  0  0
 27 50  1  0  0  0  0
 28 29  1  0  0  0  0
 28 31  1  0  0  0  0
 29 30  1  0  0  0  0
 29 51  1  0  0  0  0
 29 52  1  0  0  0  0
 30  8  1  0  0  0  0
 30 53  1  0  0  0  0
 30 54  1  0  0  0  0
 31 55  1  0  0  0  0
 31 56  1  0  0  0  0
 31 57  1  0  0  0  0
 32 33  1  0  0  0  0
 33 58  1  0  0  0  0
 33 59  1  0  0  0  0
 33 60  1  0  0  0  0
M  END
>  <Mol_ID>
4088

>  <Formula>
C24H27N7O2

>  <MolWeight>
445.51688

>  <Cat>
S8272

>  <Name>
XMD8-87

>  <Synonyms>
N/A

>  <Target>
ACK

>  <Form>
free base

>  <CAS>
1234480-46-6

>  <URL>
http://selleckchem.com/products/xmd8-87.html

$$$$
