XMD8-85 (ERK5-IN-1)
 OpenBabel08302521313D

 63 67  0  0  0  0  0  0  0  0999 V2000
    1.1839    0.1341   -0.0339 O   0  0  0  0  0  0  0  0  0  0  0  0
   -4.7643   -4.3829    6.7732 O   0  0  0  0  0  0  0  0  0  0  0  0
    0.4144    4.6320    1.5398 N   0  0  0  0  0  0  0  0  0  0  0  0
    0.7484    7.4238    0.8789 N   0  0  0  0  0  0  0  0  0  0  0  0
   -1.6694   -4.9860    3.8247 N   0  0  0  0  0  0  0  0  0  0  0  0
   -0.8027   -0.8685    1.6929 N   0  0  0  0  0  0  0  0  0  0  0  0
   -2.7240   -3.6528    6.0509 N   0  0  0  0  0  0  0  0  0  0  0  0
   -1.2355   -2.9098    2.7643 N   0  0  0  0  0  0  0  0  0  0  0  0
   -2.0863   -0.9252    3.6888 N   0  0  0  0  0  0  0  0  0  0  0  0
   -0.6665    5.5802    1.8005 C   0  0  0  0  0  0  0  0  0  0  0  0
    1.7680    5.2029    1.5562 C   0  0  0  0  0  0  0  0  0  0  0  0
   -0.5623    6.7374    0.7948 C   0  0  0  0  0  0  0  0  0  0  0  0
    1.8286    6.4392    0.6219 C   0  0  0  0  0  0  0  0  0  0  0  0
    0.1804    3.2841    1.6681 C   0  0  0  0  0  0  0  0  0  0  0  0
    0.7937    8.5237   -0.0719 C   0  0  0  0  0  0  0  0  0  0  0  0
    0.8454    2.3800    0.8446 C   0  0  0  0  0  0  0  0  0  0  0  0
   -0.7996    2.7775    2.5076 C   0  0  0  0  0  0  0  0  0  0  0  0
    0.5396    1.0085    0.8194 C   0  0  0  0  0  0  0  0  0  0  0  0
   -0.4683    0.5051    1.6632 C   0  0  0  0  0  0  0  0  0  0  0  0
   -1.1337    1.4303    2.4799 C   0  0  0  0  0  0  0  0  0  0  0  0
   -1.7482   -3.5817    3.8222 C   0  0  0  0  0  0  0  0  0  0  0  0
   -2.3348   -2.9426    4.9010 C   0  0  0  0  0  0  0  0  0  0  0  0
   -2.7416   -5.8567    4.1161 C   0  0  0  0  0  0  0  0  0  0  0  0
   -3.8523   -5.5412    4.9161 C   0  0  0  0  0  0  0  0  0  0  0  0
   -1.4137   -1.5832    2.7292 C   0  0  0  0  0  0  0  0  0  0  0  0
   -3.8483   -4.4561    5.9538 C   0  0  0  0  0  0  0  0  0  0  0  0
   -2.5071   -1.5880    4.7697 C   0  0  0  0  0  0  0  0  0  0  0  0
   -0.3108   -5.4554    4.0937 C   0  0  0  0  0  0  0  0  0  0  0  0
   -2.7749   -7.0772    3.4051 C   0  0  0  0  0  0  0  0  0  0  0  0
   -4.9820   -6.3774    4.9297 C   0  0  0  0  0  0  0  0  0  0  0  0
   -2.3379   -3.1602    7.3554 C   0  0  0  0  0  0  0  0  0  0  0  0
   -3.8895   -7.9167    3.4545 C   0  0  0  0  0  0  0  0  0  0  0  0
   -5.0010   -7.5575    4.1980 C   0  0  0  0  0  0  0  0  0  0  0  0
    2.4357    0.6224   -0.5327 C   0  0  0  0  0  0  0  0  0  0  0  0
   -0.1954   -1.4633    1.1452 H   0  0  0  0  0  0  0  0  0  0  0  0
   -0.6028    5.9459    2.8332 H   0  0  0  0  0  0  0  0  0  0  0  0
   -1.6519    5.1189    1.6605 H   0  0  0  0  0  0  0  0  0  0  0  0
    2.0137    5.5056    2.5811 H   0  0  0  0  0  0  0  0  0  0  0  0
    2.5346    4.4852    1.2431 H   0  0  0  0  0  0  0  0  0  0  0  0
   -1.3711    7.4446    1.0031 H   0  0  0  0  0  0  0  0  0  0  0  0
   -0.7167    6.3447   -0.2204 H   0  0  0  0  0  0  0  0  0  0  0  0
    1.7789    6.0890   -0.4184 H   0  0  0  0  0  0  0  0  0  0  0  0
    2.8026    6.9230    0.7571 H   0  0  0  0  0  0  0  0  0  0  0  0
    1.7402    9.0671    0.0150 H   0  0  0  0  0  0  0  0  0  0  0  0
    0.6900    8.1897   -1.1104 H   0  0  0  0  0  0  0  0  0  0  0  0
   -0.0048    9.2433    0.1459 H   0  0  0  0  0  0  0  0  0  0  0  0
    1.5717    2.8005    0.1627 H   0  0  0  0  0  0  0  0  0  0  0  0
   -1.3382    3.4210    3.1962 H   0  0  0  0  0  0  0  0  0  0  0  0
   -1.9521    1.1455    3.1293 H   0  0  0  0  0  0  0  0  0  0  0  0
   -3.0197   -0.9890    5.5102 H   0  0  0  0  0  0  0  0  0  0  0  0
    0.3387   -5.2547    3.2338 H   0  0  0  0  0  0  0  0  0  0  0  0
    0.1165   -4.9548    4.9730 H   0  0  0  0  0  0  0  0  0  0  0  0
   -0.2607   -6.5322    4.2995 H   0  0  0  0  0  0  0  0  0  0  0  0
   -1.9472   -7.3488    2.7621 H   0  0  0  0  0  0  0  0  0  0  0  0
   -5.8496   -6.1217    5.5457 H   0  0  0  0  0  0  0  0  0  0  0  0
   -3.1603   -2.6525    7.8628 H   0  0  0  0  0  0  0  0  0  0  0  0
   -2.0616   -4.0441    7.9457 H   0  0  0  0  0  0  0  0  0  0  0  0
   -1.4513   -2.5209    7.2917 H   0  0  0  0  0  0  0  0  0  0  0  0
   -3.8860   -8.8460    2.8876 H   0  0  0  0  0  0  0  0  0  0  0  0
   -5.8766   -8.2005    4.2268 H   0  0  0  0  0  0  0  0  0  0  0  0
    2.9134   -0.1660   -1.1230 H   0  0  0  0  0  0  0  0  0  0  0  0
    2.3086    1.4790   -1.2023 H   0  0  0  0  0  0  0  0  0  0  0  0
    3.1022    0.8737    0.3005 H   0  0  0  0  0  0  0  0  0  0  0  0
  1 18  1  0  0  0  0
  1 34  1  0  0  0  0
  2 26  2  0  0  0  0
  3 10  1  0  0  0  0
  3 11  1  0  0  0  0
  3 14  1  0  0  0  0
  4 12  1  0  0  0  0
  4 13  1  0  0  0  0
  4 15  1  0  0  0  0
  5 21  1  0  0  0  0
  5 23  1  0  0  0  0
  5 28  1  0  0  0  0
  6 19  1  0  0  0  0
  6 25  1  0  0  0  0
  6 35  1  0  0  0  0
  7 22  1  0  0  0  0
  7 26  1  0  0  0  0
  7 31  1  0  0  0  0
  8 21  2  0  0  0  0
  8 25  1  0  0  0  0
  9 25  2  0  0  0  0
  9 27  1  0  0  0  0
 10 12  1  0  0  0  0
 10 36  1  0  0  0  0
 10 37  1  0  0  0  0
 11 13  1  0  0  0  0
 11 38  1  0  0  0  0
 11 39  1  0  0  0  0
 12 40  1  0  0  0  0
 12 41  1  0  0  0  0
 13 42  1  0  0  0  0
 13 43  1  0  0  0  0
 14 16  2  0  0  0  0
 14 17  1  0  0  0  0
 15 44  1  0  0  0  0
 15 45  1  0  0  0  0
 15 46  1  0  0  0  0
 16 18  1  0  0  0  0
 16 47  1  0  0  0  0
 17 20  2  0  0  0  0
 17 48  1  0  0  0  0
 18 19  2  0  0  0  0
 19 20  1  0  0  0  0
 20 49  1  0  0  0  0
 21 22  1  0  0  0  0
 22 27  2  0  0  0  0
 23 24  2  0  0  0  0
 23 29  1  0  0  0  0
 24 26  1  0  0  0  0
 24 30  1  0  0  0  0
 27 50  1  0  0  0  0
 28 51  1  0  0  0  0
 28 52  1  0  0  0  0
 28 53  1  0  0  0  0
 29 32  2  0  0  0  0
 29 54  1  0  0  0  0
 30 33  2  0  0  0  0
 30 55  1  0  0  0  0
 31 56  1  0  0  0  0
 31 57  1  0  0  0  0
 31 58  1  0  0  0  0
 32 33  1  0  0  0  0
 32 59  1  0  0  0  0
 33 60  1  0  0  0  0
 34 61  1  0  0  0  0
 34 62  1  0  0  0  0
 34 63  1  0  0  0  0
M  END
>  <Mol_ID>
5993

>  <Formula>
C25H29N7O2

>  <MolWeight>
459.54346

>  <Cat>
S0726

>  <Name>
XMD8-85 (ERK5-IN-1)

>  <Synonyms>
N/A

>  <Target>
ERK,LRRK2

>  <Form>
Free Base

>  <CAS>
1234479-76-5

>  <URL>
http://www.selleckchem.com/products/xmd-8-85.html

$$$$
