XMU-MP-1.cdx
 OpenBabel08302520433D

 44 47  0  0  0  0  0  0  0  0999 V2000
   -3.4577   -0.2172    0.3615 N   0  0  0  0  0  0  0  0  0  0  0  0
   -3.1303    1.0804    0.4200 C   0  0  0  0  0  0  0  0  0  0  0  0
   -1.9106    1.5425    0.1143 N   0  0  0  0  0  0  0  0  0  0  0  0
   -0.9583    0.6501   -0.2651 C   0  0  0  0  0  0  0  0  0  0  0  0
   -1.2218   -0.7126   -0.3607 C   0  0  0  0  0  0  0  0  0  0  0  0
   -2.5070   -1.0799   -0.0244 C   0  0  0  0  0  0  0  0  0  0  0  0
    0.3080    1.1667   -0.6220 N   0  0  0  0  0  0  0  0  0  0  0  0
    1.5046    0.6586   -0.2210 C   0  0  0  0  0  0  0  0  0  0  0  0
    1.7512   -0.6694    0.0644 C   0  0  0  0  0  0  0  0  0  0  0  0
    0.9604   -1.8509   -0.2309 C   0  0  0  0  0  0  0  0  0  0  0  0
   -0.2897   -1.6721   -0.8411 N   0  0  0  0  0  0  0  0  0  0  0  0
   -0.7684   -2.7532   -1.6829 C   0  0  0  0  0  0  0  0  0  0  0  0
    0.2175    2.0501   -1.7824 C   0  0  0  0  0  0  0  0  0  0  0  0
    1.3881   -2.9991   -0.0743 O   0  0  0  0  0  0  0  0  0  0  0  0
   -4.0841    2.0032    0.8422 N   0  0  0  0  0  0  0  0  0  0  0  0
   -7.6417    2.3921    1.8269 C   0  0  0  0  0  0  0  0  0  0  0  0
   -6.2533    2.5694    1.7724 C   0  0  0  0  0  0  0  0  0  0  0  0
   -5.4810    1.8938    0.8182 C   0  0  0  0  0  0  0  0  0  0  0  0
   -6.1363    1.0366   -0.0800 C   0  0  0  0  0  0  0  0  0  0  0  0
   -7.5198    0.8587   -0.0432 C   0  0  0  0  0  0  0  0  0  0  0  0
   -8.2663    1.5353    0.9180 C   0  0  0  0  0  0  0  0  0  0  0  0
  -10.0107    1.2855    0.9813 S   0  0  0  0  0  0  0  0  0  0  0  0
  -10.5031    1.8714   -0.5113 N   0  0  0  0  0  0  0  0  0  0  0  0
  -10.2790   -0.1309    0.9647 O   0  0  0  0  0  0  0  0  0  0  0  0
  -10.5977    2.1795    1.9538 O   0  0  0  0  0  0  0  0  0  0  0  0
    2.6623    1.4718   -0.0207 C   0  0  0  0  0  0  0  0  0  0  0  0
    3.7198    0.7598    0.4959 C   0  0  0  0  0  0  0  0  0  0  0  0
    3.3241   -0.8816    0.7286 S   0  0  0  0  0  0  0  0  0  0  0  0
   -2.8267   -2.1177   -0.0214 H   0  0  0  0  0  0  0  0  0  0  0  0
   -0.0015   -2.9379   -2.4452 H   0  0  0  0  0  0  0  0  0  0  0  0
   -0.9155   -3.6664   -1.1027 H   0  0  0  0  0  0  0  0  0  0  0  0
   -1.6851   -2.4686   -2.2095 H   0  0  0  0  0  0  0  0  0  0  0  0
   -0.3246    1.5578   -2.6018 H   0  0  0  0  0  0  0  0  0  0  0  0
   -0.2960    2.9848   -1.5356 H   0  0  0  0  0  0  0  0  0  0  0  0
    1.2033    2.3100   -2.1858 H   0  0  0  0  0  0  0  0  0  0  0  0
   -3.6820    2.9086    1.0289 H   0  0  0  0  0  0  0  0  0  0  0  0
   -8.2199    2.9064    2.5915 H   0  0  0  0  0  0  0  0  0  0  0  0
   -5.7753    3.2113    2.5088 H   0  0  0  0  0  0  0  0  0  0  0  0
   -5.5694    0.5007   -0.8368 H   0  0  0  0  0  0  0  0  0  0  0  0
   -7.9951    0.1885   -0.7540 H   0  0  0  0  0  0  0  0  0  0  0  0
  -11.0398    1.1583   -1.0062 H   0  0  0  0  0  0  0  0  0  0  0  0
  -10.9947    2.7576   -0.3950 H   0  0  0  0  0  0  0  0  0  0  0  0
    2.7091    2.5367   -0.2086 H   0  0  0  0  0  0  0  0  0  0  0  0
    4.7016    1.1264    0.7605 H   0  0  0  0  0  0  0  0  0  0  0  0
  1  2  2  0  0  0  0
  2  3  1  0  0  0  0
  2 15  1  0  0  0  0
  3  4  2  0  0  0  0
  4  5  1  0  0  0  0
  4  7  1  0  0  0  0
  5  6  2  0  0  0  0
  6  1  1  0  0  0  0
  6 29  1  0  0  0  0
  7  8  1  0  0  0  0
  7 13  1  0  0  0  0
  8  9  2  0  0  0  0
  8 26  1  0  0  0  0
  9 10  1  0  0  0  0
 10 11  1  0  0  0  0
 10 14  2  0  0  0  0
 11  5  1  0  0  0  0
 11 12  1  0  0  0  0
 12 30  1  0  0  0  0
 12 31  1  0  0  0  0
 12 32  1  0  0  0  0
 13 33  1  0  0  0  0
 13 34  1  0  0  0  0
 13 35  1  0  0  0  0
 15 36  1  0  0  0  0
 16 17  2  0  0  0  0
 16 37  1  0  0  0  0
 17 18  1  0  0  0  0
 17 38  1  0  0  0  0
 18 19  2  0  0  0  0
 18 15  1  0  0  0  0
 19 20  1  0  0  0  0
 19 39  1  0  0  0  0
 20 21  2  0  0  0  0
 20 40  1  0  0  0  0
 21 16  1  0  0  0  0
 21 22  1  0  0  0  0
 22 23  1  0  0  0  0
 22 24  2  0  0  0  0
 22 25  2  0  0  0  0
 23 41  1  0  0  0  0
 23 42  1  0  0  0  0
 26 27  2  0  0  0  0
 26 43  1  0  0  0  0
 27 28  1  0  0  0  0
 27 44  1  0  0  0  0
 28  9  1  0  0  0  0
M  END
>  <Mol_ID>
4092

>  <Formula>
C17H16N6O3S2

>  <MolWeight>
416.47734

>  <Cat>
S8334

>  <Name>
XMU-MP-1

>  <Synonyms>
N/A

>  <Target>
MST

>  <Form>
free base

>  <CAS>
2061980-01-4

>  <URL>
http://selleckchem.com/products/xmu-mp-1.html

$$$$
