XP-59
 OpenBabel08302521323D

 35 37  0  0  0  0  0  0  0  0999 V2000
    0.9303    0.0685    0.0313 C   0  0  0  0  0  0  0  0  0  0  0  0
    0.1812    0.0683    1.3086 C   0  0  0  0  0  0  0  0  0  0  0  0
    0.6052    0.8535    2.3728 C   0  0  0  0  0  0  0  0  0  0  0  0
   -0.1440    0.8736    3.5622 C   0  0  0  0  0  0  0  0  0  0  0  0
   -1.3141    0.1091    3.7356 C   0  0  0  0  0  0  0  0  0  0  0  0
   -1.6812   -0.7014    2.6471 C   0  0  0  0  0  0  0  0  0  0  0  0
   -0.9517   -0.7327    1.4587 C   0  0  0  0  0  0  0  0  0  0  0  0
    2.1171    0.3110   -0.0908 O   0  0  0  0  0  0  0  0  0  0  0  0
    0.0336   -0.2154   -0.9408 O   0  0  0  0  0  0  0  0  0  0  0  0
   -2.0588    0.1067    4.9076 N   0  0  0  0  0  0  0  0  0  0  0  0
   -1.7438    0.9316    6.0663 C   0  0  0  0  0  0  0  0  0  0  0  0
   -3.3847   -0.5118    4.9267 C   0  0  0  0  0  0  0  0  0  0  0  0
    0.6272   -0.8426   -2.0132 N   0  0  0  0  0  0  0  0  0  0  0  0
    1.0780   -2.1011   -1.8639 N   0  0  0  0  0  0  0  0  0  0  0  0
    1.3946   -2.5484   -3.0724 N   0  0  0  0  0  0  0  0  0  0  0  0
    1.0018   -1.6011   -3.9830 C   0  0  0  0  0  0  0  0  0  0  0  0
    0.4407   -0.5153   -3.3257 C   0  0  0  0  0  0  0  0  0  0  0  0
    1.0561   -1.6048   -5.3802 C   0  0  0  0  0  0  0  0  0  0  0  0
    0.5060   -0.5184   -6.0731 C   0  0  0  0  0  0  0  0  0  0  0  0
   -0.1076    0.5353   -5.3876 C   0  0  0  0  0  0  0  0  0  0  0  0
   -0.1590    0.5641   -3.9886 C   0  0  0  0  0  0  0  0  0  0  0  0
    1.5065    1.4580    2.2902 H   0  0  0  0  0  0  0  0  0  0  0  0
    0.2293    1.5199    4.3488 H   0  0  0  0  0  0  0  0  0  0  0  0
   -2.5525   -1.3474    2.6947 H   0  0  0  0  0  0  0  0  0  0  0  0
   -1.2834   -1.3986    0.6652 H   0  0  0  0  0  0  0  0  0  0  0  0
   -2.4206    1.7909    6.1136 H   0  0  0  0  0  0  0  0  0  0  0  0
   -1.8801    0.3393    6.9791 H   0  0  0  0  0  0  0  0  0  0  0  0
   -0.7172    1.2997    6.1010 H   0  0  0  0  0  0  0  0  0  0  0  0
   -4.0338   -0.0766    4.1583 H   0  0  0  0  0  0  0  0  0  0  0  0
   -3.3141   -1.5952    4.7778 H   0  0  0  0  0  0  0  0  0  0  0  0
   -3.8825   -0.3591    5.8905 H   0  0  0  0  0  0  0  0  0  0  0  0
    1.5089   -2.4395   -5.9071 H   0  0  0  0  0  0  0  0  0  0  0  0
    0.5445   -0.5053   -7.1608 H   0  0  0  0  0  0  0  0  0  0  0  0
   -0.5508    1.3528   -5.9554 H   0  0  0  0  0  0  0  0  0  0  0  0
   -0.6330    1.3813   -3.4536 H   0  0  0  0  0  0  0  0  0  0  0  0
  1  2  1  0  0  0  0
  1  8  2  0  0  0  0
  1  9  1  0  0  0  0
  2  3  2  0  0  0  0
  2  7  1  0  0  0  0
  3  4  1  0  0  0  0
  3 22  1  0  0  0  0
  4  5  2  0  0  0  0
  4 23  1  0  0  0  0
  5  6  1  0  0  0  0
  5 10  1  0  0  0  0
  6  7  2  0  0  0  0
  6 24  1  0  0  0  0
  7 25  1  0  0  0  0
  9 13  1  0  0  0  0
 10 11  1  0  0  0  0
 10 12  1  0  0  0  0
 11 26  1  0  0  0  0
 11 27  1  0  0  0  0
 11 28  1  0  0  0  0
 12 29  1  0  0  0  0
 12 30  1  0  0  0  0
 12 31  1  0  0  0  0
 13 14  1  0  0  0  0
 13 17  1  0  0  0  0
 14 15  2  0  0  0  0
 15 16  1  0  0  0  0
 16 17  2  0  0  0  0
 18 19  2  0  0  0  0
 18 16  1  0  0  0  0
 18 32  1  0  0  0  0
 19 20  1  0  0  0  0
 19 33  1  0  0  0  0
 20 21  2  0  0  0  0
 20 34  1  0  0  0  0
 21 17  1  0  0  0  0
 21 35  1  0  0  0  0
M  END
>  <Mol_ID>
6188

>  <Formula>
C15H14N4O2

>  <MolWeight>
282.29726

>  <Cat>
S0875

>  <Name>
XP-59

>  <Synonyms>
N/A

>  <Target>
COVID-19,SARS-CoV

>  <Form>
free base

>  <CAS>
890402-73-0

>  <URL>
http://www.selleckchem.com/products/xp-59.html

$$$$
