XY1
 OpenBabel08302521243D

 41 43  0  0  0  0  0  0  0  0999 V2000
    0.8786   -0.0473   -0.0038 N   0  0  0  0  0  0  0  0  0  0  0  0
    0.3214    0.3626    1.1793 C   0  0  0  0  0  0  0  0  0  0  0  0
   -0.8301    0.7629    1.3232 O   0  0  0  0  0  0  0  0  0  0  0  0
    1.1218    0.2876    2.2759 N   0  0  0  0  0  0  0  0  0  0  0  0
    2.5254   -0.0721    2.4118 C   0  0  0  0  0  0  0  0  0  0  0  0
    2.7190   -1.3960    3.1674 C   0  0  0  0  0  0  0  0  0  0  0  0
    4.0230   -1.7816    3.4044 N   0  0  0  0  0  0  0  0  0  0  0  0
    5.2371   -1.0474    3.1022 C   0  0  0  0  0  0  0  0  0  0  0  0
    6.2644   -2.1499    2.9179 C   0  0  0  0  0  0  0  0  0  0  0  0
    5.8444   -3.1999    3.9426 C   0  0  0  0  0  0  0  0  0  0  0  0
    4.3299   -3.0431    4.0582 C   0  0  0  0  0  0  0  0  0  0  0  0
    1.7654   -2.0900    3.5223 O   0  0  0  0  0  0  0  0  0  0  0  0
   -0.6009    1.0692   -1.6332 C   0  0  0  0  0  0  0  0  0  0  0  0
    0.1681   -0.0256   -1.2261 C   0  0  0  0  0  0  0  0  0  0  0  0
    0.2550   -1.1486   -2.0476 C   0  0  0  0  0  0  0  0  0  0  0  0
   -0.4838   -1.2144   -3.2343 C   0  0  0  0  0  0  0  0  0  0  0  0
   -1.2725   -0.1319   -3.6454 C   0  0  0  0  0  0  0  0  0  0  0  0
   -2.0155   -0.1910   -4.8355 C   0  0  0  0  0  0  0  0  0  0  0  0
   -2.7694    0.9055   -5.2632 C   0  0  0  0  0  0  0  0  0  0  0  0
   -2.7834    2.0716   -4.5032 C   0  0  0  0  0  0  0  0  0  0  0  0
   -2.0659    2.1361   -3.3078 C   0  0  0  0  0  0  0  0  0  0  0  0
   -1.3121    1.0381   -2.8535 C   0  0  0  0  0  0  0  0  0  0  0  0
    1.5169   -0.8192    0.1065 H   0  0  0  0  0  0  0  0  0  0  0  0
    0.5984    0.4181    3.1336 H   0  0  0  0  0  0  0  0  0  0  0  0
    2.9986   -0.1427    1.4298 H   0  0  0  0  0  0  0  0  0  0  0  0
    2.9963    0.7305    2.9878 H   0  0  0  0  0  0  0  0  0  0  0  0
    5.4745   -0.4290    3.9765 H   0  0  0  0  0  0  0  0  0  0  0  0
    5.1367   -0.4057    2.2265 H   0  0  0  0  0  0  0  0  0  0  0  0
    6.1797   -2.5682    1.9074 H   0  0  0  0  0  0  0  0  0  0  0  0
    7.2912   -1.8021    3.0597 H   0  0  0  0  0  0  0  0  0  0  0  0
    6.1302   -4.2110    3.6354 H   0  0  0  0  0  0  0  0  0  0  0  0
    6.3221   -2.9982    4.9081 H   0  0  0  0  0  0  0  0  0  0  0  0
    3.7869   -3.8550    3.5640 H   0  0  0  0  0  0  0  0  0  0  0  0
    4.0129   -2.9936    5.1061 H   0  0  0  0  0  0  0  0  0  0  0  0
   -0.6453    1.9606   -1.0108 H   0  0  0  0  0  0  0  0  0  0  0  0
    0.8427   -2.0120   -1.7495 H   0  0  0  0  0  0  0  0  0  0  0  0
   -0.4437   -2.1236   -3.8240 H   0  0  0  0  0  0  0  0  0  0  0  0
   -2.0174   -1.0951   -5.4394 H   0  0  0  0  0  0  0  0  0  0  0  0
   -3.3417    0.8458   -6.1846 H   0  0  0  0  0  0  0  0  0  0  0  0
   -3.3598    2.9294   -4.8404 H   0  0  0  0  0  0  0  0  0  0  0  0
   -2.0931    3.0579   -2.7286 H   0  0  0  0  0  0  0  0  0  0  0  0
  1  2  1  0  0  0  0
  1 14  1  0  0  0  0
  1 23  1  0  0  0  0
  2  3  2  0  0  0  0
  2  4  1  0  0  0  0
  4  5  1  0  0  0  0
  4 24  1  0  0  0  0
  5  6  1  0  0  0  0
  5 25  1  0  0  0  0
  5 26  1  0  0  0  0
  6  7  1  0  0  0  0
  6 12  2  0  0  0  0
  7  8  1  0  0  0  0
  7 11  1  0  0  0  0
  8  9  1  0  0  0  0
  8 27  1  0  0  0  0
  8 28  1  0  0  0  0
  9 10  1  0  0  0  0
  9 29  1  0  0  0  0
  9 30  1  0  0  0  0
 10 11  1  0  0  0  0
 10 31  1  0  0  0  0
 10 32  1  0  0  0  0
 11 33  1  0  0  0  0
 11 34  1  0  0  0  0
 13 14  2  0  0  0  0
 13 22  1  0  0  0  0
 13 35  1  0  0  0  0
 14 15  1  0  0  0  0
 15 16  2  0  0  0  0
 15 36  1  0  0  0  0
 16 17  1  0  0  0  0
 16 37  1  0  0  0  0
 17 18  1  0  0  0  0
 17 22  2  0  0  0  0
 18 19  2  0  0  0  0
 18 38  1  0  0  0  0
 19 20  1  0  0  0  0
 19 39  1  0  0  0  0
 20 21  2  0  0  0  0
 20 40  1  0  0  0  0
 21 22  1  0  0  0  0
 21 41  1  0  0  0  0
M  END
>  <Mol_ID>
4971

>  <Formula>
C17H19N3O2

>  <MolWeight>
297.35166

>  <Cat>
S0184

>  <Name>
XY1

>  <Synonyms>
N/A

>  <Target>
PRMT

>  <Form>
Free Base

>  <CAS>
1624117-53-8

>  <URL>
http://www.selleckchem.com/products/xy1.html

$$$$
