Xylan
 OpenBabel08302521363D

 20 20  0  0  1  0  0  0  0  0999 V2000
    0.8277   -1.6313   -0.2328 O   0  0  0  0  0  0  0  0  0  0  0  0
   -1.6027    1.7444   -0.4176 O   0  0  0  0  0  0  0  0  0  0  0  0
    1.2071    2.0042    0.4132 O   0  0  0  0  0  0  0  0  0  0  0  0
   -2.7311   -0.8773    0.2395 O   0  0  0  0  0  0  0  0  0  0  0  0
    2.7674   -0.4160   -0.2256 O   0  0  0  0  0  0  0  0  0  0  0  0
   -0.8355    0.6880    0.1761 C   0  0  2  0  0  0  0  0  0  0  0  0
    0.6554    0.8197   -0.1809 C   0  0  2  0  0  0  0  0  0  0  0  0
   -1.4055   -0.6766   -0.2488 C   0  0  1  0  0  0  0  0  0  0  0  0
    1.4338   -0.4437    0.2559 C   0  0  1  0  0  0  0  0  0  0  0  0
   -0.4997   -1.7982    0.2527 C   0  0  0  0  0  0  0  0  0  0  0  0
   -1.4843    1.7101   -1.3845 H   0  0  0  0  0  0  0  0  0  0  0  0
    1.1182    1.9431    1.3806 H   0  0  0  0  0  0  0  0  0  0  0  0
   -2.8423   -0.3779    1.0690 H   0  0  0  0  0  0  0  0  0  0  0  0
    2.7081   -0.2870   -1.1873 H   0  0  0  0  0  0  0  0  0  0  0  0
   -0.9663    0.8226    1.2571 H   0  0  0  0  0  0  0  0  0  0  0  0
    0.7594    0.9598   -1.2627 H   0  0  0  0  0  0  0  0  0  0  0  0
   -1.4613   -0.7123   -1.3434 H   0  0  0  0  0  0  0  0  0  0  0  0
    1.5023   -0.4904    1.3490 H   0  0  0  0  0  0  0  0  0  0  0  0
   -0.4981   -1.8491    1.3490 H   0  0  0  0  0  0  0  0  0  0  0  0
   -0.8757   -2.7646   -0.0992 H   0  0  0  0  0  0  0  0  0  0  0  0
  1  9  1  0  0  0  0
  1 10  1  0  0  0  0
  2 11  1  0  0  0  0
  3 12  1  0  0  0  0
  4 13  1  0  0  0  0
  5 14  1  0  0  0  0
  6  2  1  0  0  0  0
  6  7  1  0  0  0  0
  6  8  1  0  0  0  0
  6 15  1  1  0  0  0
  7  3  1  0  0  0  0
  7  9  1  0  0  0  0
  7 16  1  6  0  0  0
  8  4  1  0  0  0  0
  8 10  1  0  0  0  0
  8 17  1  6  0  0  0
  9  5  1  0  0  0  0
  9 18  1  1  0  0  0
 10 19  1  0  0  0  0
 10 20  1  0  0  0  0
M  END
>  <Mol_ID>
7050

>  <Formula>
C5H10O5

>  <MolWeight>
150.1299

>  <Cat>
E4058

>  <Name>
Xylan

>  <Synonyms>
Xylan

>  <Target>
Others

>  <Form>
Free base

>  <CAS>
9014-63-5

>  <URL>
https://www.selleckchem.com/products/xylan.html

$$$$
