Xylazine HCl.cdx
 OpenBabel08302521593D

 31 32  0  0  0  0  0  0  0  0999 V2000
    1.2854   -0.9993   -0.0203 C   0  0  0  0  0  0  0  0  0  0  0  0
    0.1612   -1.8111   -0.0279 C   0  0  0  0  0  0  0  0  0  0  0  0
   -1.1020   -1.2354   -0.0537 C   0  0  0  0  0  0  0  0  0  0  0  0
   -1.2671    0.1612   -0.0695 C   0  0  0  0  0  0  0  0  0  0  0  0
   -0.1285    1.0010    0.0093 C   0  0  0  0  0  0  0  0  0  0  0  0
    1.1598    0.4003   -0.0035 C   0  0  0  0  0  0  0  0  0  0  0  0
    2.4162    1.2294    0.0270 C   0  0  0  0  0  0  0  0  0  0  0  0
   -2.6849    0.6627   -0.1703 C   0  0  0  0  0  0  0  0  0  0  0  0
   -0.1952    2.4165    0.0309 N   0  0  0  0  0  0  0  0  0  0  0  0
   -1.1588    3.1805    0.6357 C   0  0  0  0  0  0  0  0  0  0  0  0
   -1.3506    4.7166   -0.1982 S   0  0  0  0  0  0  0  0  0  0  0  0
   -2.7120    5.4669    0.7119 C   0  0  0  0  0  0  0  0  0  0  0  0
   -3.6563    4.4159    1.2471 C   0  0  0  0  0  0  0  0  0  0  0  0
   -2.9260    3.5517    2.2523 C   0  0  0  0  0  0  0  0  0  0  0  0
   -1.8245    2.8178    1.6641 N   0  0  0  0  0  0  0  0  0  0  0  0
    2.2691   -1.4630   -0.0109 H   0  0  0  0  0  0  0  0  0  0  0  0
    0.2672   -2.8931   -0.0245 H   0  0  0  0  0  0  0  0  0  0  0  0
   -1.9741   -1.8878   -0.0745 H   0  0  0  0  0  0  0  0  0  0  0  0
    2.4746    1.8673   -0.8599 H   0  0  0  0  0  0  0  0  0  0  0  0
    2.4462    1.8487    0.9304 H   0  0  0  0  0  0  0  0  0  0  0  0
    3.3133    0.5990    0.0340 H   0  0  0  0  0  0  0  0  0  0  0  0
   -3.0871    0.8874    0.8209 H   0  0  0  0  0  0  0  0  0  0  0  0
   -2.7531    1.5378   -0.8228 H   0  0  0  0  0  0  0  0  0  0  0  0
   -3.3401   -0.0961   -0.6111 H   0  0  0  0  0  0  0  0  0  0  0  0
    0.2082    2.8339   -0.7974 H   0  0  0  0  0  0  0  0  0  0  0  0
   -3.2471    6.1439    0.0387 H   0  0  0  0  0  0  0  0  0  0  0  0
   -2.3050    6.0724    1.5290 H   0  0  0  0  0  0  0  0  0  0  0  0
   -4.5066    4.9017    1.7385 H   0  0  0  0  0  0  0  0  0  0  0  0
   -4.0676    3.8063    0.4319 H   0  0  0  0  0  0  0  0  0  0  0  0
   -2.5736    4.1379    3.1070 H   0  0  0  0  0  0  0  0  0  0  0  0
   -3.6391    2.8178    2.6485 H   0  0  0  0  0  0  0  0  0  0  0  0
  1  2  2  0  0  0  0
  1 16  1  0  0  0  0
  2  3  1  0  0  0  0
  2 17  1  0  0  0  0
  3  4  2  0  0  0  0
  3 18  1  0  0  0  0
  4  5  1  0  0  0  0
  4  8  1  0  0  0  0
  5  6  2  0  0  0  0
  5  9  1  0  0  0  0
  6  1  1  0  0  0  0
  6  7  1  0  0  0  0
  7 19  1  0  0  0  0
  7 20  1  0  0  0  0
  7 21  1  0  0  0  0
  8 22  1  0  0  0  0
  8 23  1  0  0  0  0
  8 24  1  0  0  0  0
  9 10  1  0  0  0  0
  9 25  1  0  0  0  0
 10 11  1  0  0  0  0
 11 12  1  0  0  0  0
 12 13  1  0  0  0  0
 12 26  1  0  0  0  0
 12 27  1  0  0  0  0
 13 14  1  0  0  0  0
 13 28  1  0  0  0  0
 13 29  1  0  0  0  0
 14 15  1  0  0  0  0
 14 30  1  0  0  0  0
 14 31  1  0  0  0  0
 15 10  2  0  0  0  0
M  END
>  <Mol_ID>
1006

>  <Formula>
C12H17ClN2S

>  <MolWeight>
256.79478

>  <Cat>
S2516

>  <Name>
Xylazine HCl

>  <Synonyms>
BAY 1470 hydrochloride

>  <Target>
Adrenergic Receptor

>  <Form>
Hydrochloride

>  <CAS>
23076-35-9

>  <URL>
http://selleckchem.com/products/Xylazine(Rompun).html

$$$$
