XYLO-PFAN (xylose).cdx
 OpenBabel08302521323D

 20 19  0  0  0  0  0  0  0  0999 V2000
   -2.3400    0.3649   -5.1905 O   0  0  0  0  0  0  0  0  0  0  0  0
   -2.8185   -0.6650   -4.3264 C   0  0  0  0  0  0  0  0  0  0  0  0
   -1.8412   -0.9070   -3.1667 C   0  0  2  0  0  0  0  0  0  0  0  0
   -1.7195    0.3092   -2.2250 C   0  0  1  0  0  0  0  0  0  0  0  0
   -0.8199    0.0125   -1.0067 C   0  0  2  0  0  0  0  0  0  0  0  0
   -1.3469   -1.1420   -0.1777 C   0  0  0  0  0  0  0  0  0  0  0  0
   -2.5445   -1.4177   -0.0770 O   0  0  0  0  0  0  0  0  0  0  0  0
   -0.5393   -1.2014   -3.6956 O   0  0  0  0  0  0  0  0  0  0  0  0
   -0.7365    1.1564   -0.1519 O   0  0  0  0  0  0  0  0  0  0  0  0
   -1.1969    1.4333   -2.9686 O   0  0  0  0  0  0  0  0  0  0  0  0
   -2.2075    1.1609   -4.6330 H   0  0  0  0  0  0  0  0  0  0  0  0
   -3.8144   -0.3946   -3.9613 H   0  0  0  0  0  0  0  0  0  0  0  0
   -2.9049   -1.5721   -4.9333 H   0  0  0  0  0  0  0  0  0  0  0  0
   -2.1801   -1.7906   -2.6188 H   0  0  0  0  0  0  0  0  0  0  0  0
   -2.7150    0.6173   -1.8867 H   0  0  0  0  0  0  0  0  0  0  0  0
    0.2004   -0.2228   -1.3259 H   0  0  0  0  0  0  0  0  0  0  0  0
   -0.5859   -1.6967    0.3978 H   0  0  0  0  0  0  0  0  0  0  0  0
   -0.4631   -0.6590   -4.5090 H   0  0  0  0  0  0  0  0  0  0  0  0
   -1.6480    1.3914    0.1073 H   0  0  0  0  0  0  0  0  0  0  0  0
   -0.2292    1.4468   -2.8309 H   0  0  0  0  0  0  0  0  0  0  0  0
  1  2  1  0  0  0  0
  1 11  1  0  0  0  0
  2 12  1  0  0  0  0
  2 13  1  0  0  0  0
  3  8  1  0  0  0  0
  3 14  1  1  0  0  0
  3  4  1  0  0  0  0
  3  2  1  0  0  0  0
  4 10  1  0  0  0  0
  4 15  1  1  0  0  0
  5  9  1  0  0  0  0
  5 16  1  6  0  0  0
  5  6  1  0  0  0  0
  5  4  1  0  0  0  0
  6  7  2  0  0  0  0
  6 17  1  0  0  0  0
  8 18  1  0  0  0  0
  9 19  1  0  0  0  0
 10 20  1  0  0  0  0
M  END
>  <Mol_ID>
602

>  <Formula>
C5H10O5

>  <MolWeight>
150.1299

>  <Cat>
S2124

>  <Name>
Xylose

>  <Synonyms>
Wood sugar

>  <Target>
Others

>  <Form>
free base

>  <CAS>
25990-60-7, 58-86-6

>  <URL>
http://selleckchem.com/products/Xylose.html

$$$$
