Xylometazoline hydrochloride.cdx
 OpenBabel08302522033D

 42 43  0  0  0  0  0  0  0  0999 V2000
    1.1258   -1.1008    0.0422 C   0  0  0  0  0  0  0  0  0  0  0  0
    1.2387    0.2940   -0.0244 C   0  0  0  0  0  0  0  0  0  0  0  0
    0.0423    1.0186   -0.1402 C   0  0  0  0  0  0  0  0  0  0  0  0
   -1.2203    0.3947   -0.1866 C   0  0  0  0  0  0  0  0  0  0  0  0
   -1.3124   -1.0063   -0.0354 C   0  0  0  0  0  0  0  0  0  0  0  0
   -0.1180   -1.7592    0.0329 C   0  0  0  0  0  0  0  0  0  0  0  0
    2.5952    1.0214   -0.0113 C   0  0  0  0  0  0  0  0  0  0  0  0
    3.8046    0.0638    0.0877 C   0  0  0  0  0  0  0  0  0  0  0  0
    2.7574    1.8359   -1.3131 C   0  0  0  0  0  0  0  0  0  0  0  0
    2.6814    1.9859    1.1917 C   0  0  0  0  0  0  0  0  0  0  0  0
   -0.1246   -3.2663    0.0773 C   0  0  0  0  0  0  0  0  0  0  0  0
   -2.4153    1.2919   -0.3808 C   0  0  0  0  0  0  0  0  0  0  0  0
   -2.6597   -1.7064    0.0299 C   0  0  0  0  0  0  0  0  0  0  0  0
   -3.2119   -2.1709   -1.2946 C   0  0  0  0  0  0  0  0  0  0  0  0
   -2.6046   -1.9270   -2.5039 N   0  0  0  0  0  0  0  0  0  0  0  0
   -3.5926   -2.1259   -3.5330 C   0  0  0  0  0  0  0  0  0  0  0  0
   -4.5488   -3.0760   -2.8090 C   0  0  0  0  0  0  0  0  0  0  0  0
   -4.3592   -2.8129   -1.3492 N   0  0  0  0  0  0  0  0  0  0  0  0
    2.0182   -1.7189    0.1057 H   0  0  0  0  0  0  0  0  0  0  0  0
    0.0801    2.1051   -0.2067 H   0  0  0  0  0  0  0  0  0  0  0  0
    3.8481   -0.6184   -0.7696 H   0  0  0  0  0  0  0  0  0  0  0  0
    4.7504    0.6175    0.1078 H   0  0  0  0  0  0  0  0  0  0  0  0
    3.7659   -0.5400    1.0023 H   0  0  0  0  0  0  0  0  0  0  0  0
    1.9733    2.5923   -1.4294 H   0  0  0  0  0  0  0  0  0  0  0  0
    3.7166    2.3661   -1.3303 H   0  0  0  0  0  0  0  0  0  0  0  0
    2.7185    1.1846   -2.1940 H   0  0  0  0  0  0  0  0  0  0  0  0
    1.9083    2.7611    1.1596 H   0  0  0  0  0  0  0  0  0  0  0  0
    2.5743    1.4491    2.1413 H   0  0  0  0  0  0  0  0  0  0  0  0
    3.6498    2.5013    1.2104 H   0  0  0  0  0  0  0  0  0  0  0  0
   -0.6267   -3.6256    0.9800 H   0  0  0  0  0  0  0  0  0  0  0  0
   -0.6206   -3.6704   -0.8113 H   0  0  0  0  0  0  0  0  0  0  0  0
    0.8928   -3.6730    0.0892 H   0  0  0  0  0  0  0  0  0  0  0  0
   -2.6595    1.8056    0.5534 H   0  0  0  0  0  0  0  0  0  0  0  0
   -2.1930    2.0417   -1.1498 H   0  0  0  0  0  0  0  0  0  0  0  0
   -3.2980    0.7536   -0.7343 H   0  0  0  0  0  0  0  0  0  0  0  0
   -2.6052   -2.5711    0.6981 H   0  0  0  0  0  0  0  0  0  0  0  0
   -3.4035   -1.0545    0.5038 H   0  0  0  0  0  0  0  0  0  0  0  0
   -1.9675   -1.1407   -2.5674 H   0  0  0  0  0  0  0  0  0  0  0  0
   -3.1783   -2.5545   -4.4480 H   0  0  0  0  0  0  0  0  0  0  0  0
   -4.0885   -1.1767   -3.7601 H   0  0  0  0  0  0  0  0  0  0  0  0
   -5.5888   -2.9046   -3.1035 H   0  0  0  0  0  0  0  0  0  0  0  0
   -4.2949   -4.1236   -3.0099 H   0  0  0  0  0  0  0  0  0  0  0  0
  1  2  2  0  0  0  0
  1 19  1  0  0  0  0
  2  3  1  0  0  0  0
  2  7  1  0  0  0  0
  3  4  2  0  0  0  0
  3 20  1  0  0  0  0
  4  5  1  0  0  0  0
  4 12  1  0  0  0  0
  5  6  2  0  0  0  0
  5 13  1  0  0  0  0
  6  1  1  0  0  0  0
  6 11  1  0  0  0  0
  7  8  1  0  0  0  0
  7  9  1  0  0  0  0
  7 10  1  0  0  0  0
  8 21  1  0  0  0  0
  8 22  1  0  0  0  0
  8 23  1  0  0  0  0
  9 24  1  0  0  0  0
  9 25  1  0  0  0  0
  9 26  1  0  0  0  0
 10 27  1  0  0  0  0
 10 28  1  0  0  0  0
 10 29  1  0  0  0  0
 11 30  1  0  0  0  0
 11 31  1  0  0  0  0
 11 32  1  0  0  0  0
 12 33  1  0  0  0  0
 12 34  1  0  0  0  0
 12 35  1  0  0  0  0
 13 14  1  0  0  0  0
 13 36  1  0  0  0  0
 13 37  1  0  0  0  0
 14 15  1  0  0  0  0
 15 16  1  0  0  0  0
 15 38  1  0  0  0  0
 16 17  1  0  0  0  0
 16 39  1  0  0  0  0
 16 40  1  0  0  0  0
 17 18  1  0  0  0  0
 17 41  1  0  0  0  0
 17 42  1  0  0  0  0
 18 14  2  0  0  0  0
M  END
>  <Mol_ID>
1160

>  <Formula>
C16H25ClN2

>  <MolWeight>
280.8361

>  <Cat>
S2576

>  <Name>
Xylometazoline HCl

>  <Synonyms>
N/A

>  <Target>
Adrenergic Receptor

>  <Form>
HCl

>  <CAS>
1218-35-5

>  <URL>
http://selleckchem.com/products/xylometazoline-hcl.html

$$$$
