Xylometazoline
 OpenBabel08302520403D

 42 43  0  0  0  0  0  0  0  0999 V2000
    1.2041   -1.2112   -0.0511 C   0  0  0  0  0  0  0  0  0  0  0  0
    1.2274    0.1991    0.0632 C   0  0  0  0  0  0  0  0  0  0  0  0
   -0.0519   -1.8504   -0.1846 C   0  0  0  0  0  0  0  0  0  0  0  0
    2.4867   -2.0211    0.0307 C   0  0  0  0  0  0  0  0  0  0  0  0
    0.0150    0.9279    0.0712 C   0  0  0  0  0  0  0  0  0  0  0  0
    2.4872    1.0261    0.1349 C   0  0  0  0  0  0  0  0  0  0  0  0
   -1.2385   -1.0861   -0.1371 C   0  0  0  0  0  0  0  0  0  0  0  0
   -0.2320   -3.3388   -0.3530 C   0  0  0  0  0  0  0  0  0  0  0  0
    2.8876   -2.4136    1.4376 C   0  0  0  0  0  0  0  0  0  0  0  0
   -1.2368    0.3098   -0.0185 C   0  0  0  0  0  0  0  0  0  0  0  0
    1.9804   -2.5756    2.4645 N   0  0  0  0  0  0  0  0  0  0  0  0
    4.1432   -2.6410    1.7423 N   0  0  0  0  0  0  0  0  0  0  0  0
   -2.5603    1.0963   -0.0127 C   0  0  0  0  0  0  0  0  0  0  0  0
    2.7291   -2.5998    3.7003 C   0  0  0  0  0  0  0  0  0  0  0  0
    4.1051   -3.0276    3.1821 C   0  0  0  0  0  0  0  0  0  0  0  0
   -2.3717    2.6296    0.0511 C   0  0  0  0  0  0  0  0  0  0  0  0
   -3.3550    0.7907   -1.3016 C   0  0  0  0  0  0  0  0  0  0  0  0
   -3.4115    0.6901    1.2089 C   0  0  0  0  0  0  0  0  0  0  0  0
    2.4263   -2.9359   -0.5633 H   0  0  0  0  0  0  0  0  0  0  0  0
    3.3180   -1.4825   -0.4370 H   0  0  0  0  0  0  0  0  0  0  0  0
    0.0880    2.0102    0.1450 H   0  0  0  0  0  0  0  0  0  0  0  0
    2.5602    1.6516   -0.7627 H   0  0  0  0  0  0  0  0  0  0  0  0
    2.4580    1.6774    1.0153 H   0  0  0  0  0  0  0  0  0  0  0  0
    3.4047    0.4421    0.2045 H   0  0  0  0  0  0  0  0  0  0  0  0
   -2.1890   -1.6140   -0.2096 H   0  0  0  0  0  0  0  0  0  0  0  0
   -0.5799   -3.7841    0.5837 H   0  0  0  0  0  0  0  0  0  0  0  0
   -0.9764   -3.5321   -1.1351 H   0  0  0  0  0  0  0  0  0  0  0  0
    0.6709   -3.8602   -0.6704 H   0  0  0  0  0  0  0  0  0  0  0  0
    1.1427   -2.0060    2.4277 H   0  0  0  0  0  0  0  0  0  0  0  0
    2.3163   -3.2977    4.4323 H   0  0  0  0  0  0  0  0  0  0  0  0
    2.7719   -1.5959    4.1328 H   0  0  0  0  0  0  0  0  0  0  0  0
    4.9113   -2.5406    3.7399 H   0  0  0  0  0  0  0  0  0  0  0  0
    4.2339   -4.1136    3.2590 H   0  0  0  0  0  0  0  0  0  0  0  0
   -1.8106    3.0017   -0.8142 H   0  0  0  0  0  0  0  0  0  0  0  0
   -3.3382    3.1479    0.0563 H   0  0  0  0  0  0  0  0  0  0  0  0
   -1.8399    2.9340    0.9599 H   0  0  0  0  0  0  0  0  0  0  0  0
   -3.6065   -0.2714   -1.3943 H   0  0  0  0  0  0  0  0  0  0  0  0
   -4.3012    1.3444   -1.3228 H   0  0  0  0  0  0  0  0  0  0  0  0
   -2.7830    1.0722   -2.1938 H   0  0  0  0  0  0  0  0  0  0  0  0
   -3.6744   -0.3733    1.1959 H   0  0  0  0  0  0  0  0  0  0  0  0
   -2.8799    0.8882    2.1469 H   0  0  0  0  0  0  0  0  0  0  0  0
   -4.3530    1.2528    1.2364 H   0  0  0  0  0  0  0  0  0  0  0  0
  1  2  2  0  0  0  0
  1  3  1  0  0  0  0
  1  4  1  0  0  0  0
  2  5  1  0  0  0  0
  2  6  1  0  0  0  0
  3  7  2  0  0  0  0
  3  8  1  0  0  0  0
  4  9  1  0  0  0  0
  4 19  1  0  0  0  0
  4 20  1  0  0  0  0
  5 10  2  0  0  0  0
  5 21  1  0  0  0  0
  6 22  1  0  0  0  0
  6 23  1  0  0  0  0
  6 24  1  0  0  0  0
  7 10  1  0  0  0  0
  7 25  1  0  0  0  0
  8 26  1  0  0  0  0
  8 27  1  0  0  0  0
  8 28  1  0  0  0  0
  9 11  1  0  0  0  0
  9 12  2  0  0  0  0
 10 13  1  0  0  0  0
 11 14  1  0  0  0  0
 11 29  1  0  0  0  0
 12 15  1  0  0  0  0
 13 16  1  0  0  0  0
 13 17  1  0  0  0  0
 13 18  1  0  0  0  0
 14 15  1  0  0  0  0
 14 30  1  0  0  0  0
 14 31  1  0  0  0  0
 15 32  1  0  0  0  0
 15 33  1  0  0  0  0
 16 34  1  0  0  0  0
 16 35  1  0  0  0  0
 16 36  1  0  0  0  0
 17 37  1  0  0  0  0
 17 38  1  0  0  0  0
 17 39  1  0  0  0  0
 18 40  1  0  0  0  0
 18 41  1  0  0  0  0
 18 42  1  0  0  0  0
M  END
>  <Mol_ID>
3706

>  <Formula>
C16H24N2

>  <MolWeight>
244.37516

>  <Cat>
S5854

>  <Name>
Xylometazoline

>  <Synonyms>
Ba-11391, Otrivine, Rhinoxilin

>  <Target>
Others

>  <Form>
Free Base

>  <CAS>
526-36-3

>  <URL>
http://www.selleck.cn/products/xylometazoline.html

$$$$
