Y-27632
 OpenBabel08302521313D

 39 40  0  0  0  0  0  0  0  0999 V2000
   -0.9206   -3.9086   -7.3990 O   0  0  0  0  0  0  0  0  0  0  0  0
    2.5289   -2.9077   -2.0270 N   0  0  0  0  0  0  0  0  0  0  0  0
    0.4989   -5.6868   -7.8332 N   0  0  0  0  0  0  0  0  0  0  0  0
    0.8156   -5.4772  -12.0468 N   0  0  0  0  0  0  0  0  0  0  0  0
    0.9609   -3.1713   -3.9515 C   0  0  1  0  0  0  0  0  0  0  0  0
    1.7195   -4.3035   -4.6692 C   0  0  0  0  0  0  0  0  0  0  0  0
   -0.5057   -3.0529   -4.4185 C   0  0  0  0  0  0  0  0  0  0  0  0
   -0.4049   -5.3585   -5.5508 C   0  0  1  0  0  0  0  0  0  0  0  0
    0.9258   -5.5943   -4.8435 C   0  0  0  0  0  0  0  0  0  0  0  0
   -1.2368   -4.3666   -4.7180 C   0  0  0  0  0  0  0  0  0  0  0  0
    1.1247   -3.1259   -2.4032 C   0  0  1  0  0  0  0  0  0  0  0  0
   -0.2866   -4.8869   -7.0136 C   0  0  0  0  0  0  0  0  0  0  0  0
    0.6249   -4.3428   -1.6327 C   0  0  0  0  0  0  0  0  0  0  0  0
    0.6399   -5.5455   -9.2385 C   0  0  0  0  0  0  0  0  0  0  0  0
    0.1023   -4.4875   -9.9688 C   0  0  0  0  0  0  0  0  0  0  0  0
    1.3188   -6.5455   -9.9373 C   0  0  0  0  0  0  0  0  0  0  0  0
    0.2001   -4.5028  -11.3495 C   0  0  0  0  0  0  0  0  0  0  0  0
    1.3686   -6.4718  -11.3237 C   0  0  0  0  0  0  0  0  0  0  0  0
    2.9394   -2.1875   -2.6204 H   0  0  0  0  0  0  0  0  0  0  0  0
    3.0752   -3.7527   -2.1834 H   0  0  0  0  0  0  0  0  0  0  0  0
    0.9337   -6.4976   -7.4179 H   0  0  0  0  0  0  0  0  0  0  0  0
    1.4356   -2.2381   -4.2954 H   0  0  0  0  0  0  0  0  0  0  0  0
    1.9974   -3.9408   -5.6677 H   0  0  0  0  0  0  0  0  0  0  0  0
    2.6660   -4.5275   -4.1678 H   0  0  0  0  0  0  0  0  0  0  0  0
   -1.0935   -2.4658   -3.7024 H   0  0  0  0  0  0  0  0  0  0  0  0
   -0.5040   -2.4547   -5.3398 H   0  0  0  0  0  0  0  0  0  0  0  0
   -0.9567   -6.3078   -5.5914 H   0  0  0  0  0  0  0  0  0  0  0  0
    1.5392   -6.3252   -5.3807 H   0  0  0  0  0  0  0  0  0  0  0  0
    0.7256   -6.0411   -3.8627 H   0  0  0  0  0  0  0  0  0  0  0  0
   -2.1793   -4.1344   -5.2315 H   0  0  0  0  0  0  0  0  0  0  0  0
   -1.5250   -4.8444   -3.7754 H   0  0  0  0  0  0  0  0  0  0  0  0
    0.5693   -2.2533   -2.0365 H   0  0  0  0  0  0  0  0  0  0  0  0
    0.7063   -4.1689   -0.5523 H   0  0  0  0  0  0  0  0  0  0  0  0
   -0.4267   -4.5490   -1.8425 H   0  0  0  0  0  0  0  0  0  0  0  0
    1.2109   -5.2402   -1.8540 H   0  0  0  0  0  0  0  0  0  0  0  0
   -0.4002   -3.6460   -9.5086 H   0  0  0  0  0  0  0  0  0  0  0  0
    1.7871   -7.3847   -9.4377 H   0  0  0  0  0  0  0  0  0  0  0  0
   -0.2413   -3.7074  -11.9443 H   0  0  0  0  0  0  0  0  0  0  0  0
    1.8586   -7.2434  -11.9119 H   0  0  0  0  0  0  0  0  0  0  0  0
  1 12  2  0  0  0  0
  2 19  1  0  0  0  0
  2 20  1  0  0  0  0
  3 12  1  0  0  0  0
  3 14  1  0  0  0  0
  3 21  1  0  0  0  0
  4 17  2  0  0  0  0
  4 18  1  0  0  0  0
  5  6  1  0  0  0  0
  5  7  1  0  0  0  0
  5 22  1  6  0  0  0
  6  9  1  0  0  0  0
  6 23  1  0  0  0  0
  6 24  1  0  0  0  0
  7 10  1  0  0  0  0
  7 25  1  0  0  0  0
  7 26  1  0  0  0  0
  8  9  1  0  0  0  0
  8 10  1  0  0  0  0
  8 27  1  6  0  0  0
  8 12  1  0  0  0  0
  9 28  1  0  0  0  0
  9 29  1  0  0  0  0
 10 30  1  0  0  0  0
 10 31  1  0  0  0  0
 11 13  1  0  0  0  0
 11 32  1  1  0  0  0
 11  2  1  0  0  0  0
 11  5  1  0  0  0  0
 13 33  1  0  0  0  0
 13 34  1  0  0  0  0
 13 35  1  0  0  0  0
 14 15  2  0  0  0  0
 14 16  1  0  0  0  0
 15 17  1  0  0  0  0
 15 36  1  0  0  0  0
 16 18  2  0  0  0  0
 16 37  1  0  0  0  0
 17 38  1  0  0  0  0
 18 39  1  0  0  0  0
M  END
>  <Mol_ID>
5897

>  <Formula>
C14H21N3O

>  <MolWeight>
247.33604

>  <Cat>
S6390

>  <Name>
Y-27632

>  <Synonyms>
N/A

>  <Target>
ROCK

>  <Form>
Free Base

>  <CAS>
146986-50-7

>  <URL>
https://www.selleckchem.com/products/y-27632-rock.html

$$$$
