YC-1.cdx
 OpenBabel08302520003D

 39 42  0  0  0  0  0  0  0  0999 V2000
    0.2177    0.9104   -1.0066 C   0  0  0  0  0  0  0  0  0  0  0  0
    0.9878    0.6258    0.0991 C   0  0  0  0  0  0  0  0  0  0  0  0
    0.6679   -0.6080    0.5876 O   0  0  0  0  0  0  0  0  0  0  0  0
   -0.2987   -1.1362   -0.2261 C   0  0  0  0  0  0  0  0  0  0  0  0
   -0.6063   -0.2217   -1.2166 C   0  0  0  0  0  0  0  0  0  0  0  0
   -0.9094   -2.4917   -0.0664 C   0  0  0  0  0  0  0  0  0  0  0  0
    2.0594    1.3561    0.8147 C   0  0  0  0  0  0  0  0  0  0  0  0
   -1.7738   -2.9893   -0.9615 N   0  0  0  0  0  0  0  0  0  0  0  0
   -2.0628   -4.2219   -0.4845 N   0  0  0  0  0  0  0  0  0  0  0  0
   -1.4608   -4.5060    0.7211 C   0  0  0  0  0  0  0  0  0  0  0  0
   -0.6558   -3.4011    0.9956 C   0  0  0  0  0  0  0  0  0  0  0  0
   -1.5296   -5.6178    1.5732 C   0  0  0  0  0  0  0  0  0  0  0  0
   -0.7269   -5.6062    2.7183 C   0  0  0  0  0  0  0  0  0  0  0  0
    0.1105   -4.5290    2.9995 C   0  0  0  0  0  0  0  0  0  0  0  0
    0.1505   -3.4165    2.1516 C   0  0  0  0  0  0  0  0  0  0  0  0
   -2.8130   -5.1496   -1.3245 C   0  0  0  0  0  0  0  0  0  0  0  0
   -4.2821   -5.1909   -0.9849 C   0  0  0  0  0  0  0  0  0  0  0  0
   -5.0716   -4.0362   -1.0928 C   0  0  0  0  0  0  0  0  0  0  0  0
   -6.4319   -4.0774   -0.7895 C   0  0  0  0  0  0  0  0  0  0  0  0
   -7.0204   -5.2735   -0.3854 C   0  0  0  0  0  0  0  0  0  0  0  0
   -6.2526   -6.4311   -0.2956 C   0  0  0  0  0  0  0  0  0  0  0  0
   -4.8907   -6.3932   -0.5974 C   0  0  0  0  0  0  0  0  0  0  0  0
    3.2180    0.5296    0.8208 O   0  0  0  0  0  0  0  0  0  0  0  0
    0.2551    1.8150   -1.5975 H   0  0  0  0  0  0  0  0  0  0  0  0
   -1.3401   -0.3681   -1.9976 H   0  0  0  0  0  0  0  0  0  0  0  0
    2.3072    2.2961    0.3155 H   0  0  0  0  0  0  0  0  0  0  0  0
    1.7700    1.5679    1.8475 H   0  0  0  0  0  0  0  0  0  0  0  0
   -2.1828   -6.4584    1.3649 H   0  0  0  0  0  0  0  0  0  0  0  0
   -0.7556   -6.4537    3.4000 H   0  0  0  0  0  0  0  0  0  0  0  0
    0.7360   -4.5475    3.8887 H   0  0  0  0  0  0  0  0  0  0  0  0
    0.7988   -2.5770    2.3852 H   0  0  0  0  0  0  0  0  0  0  0  0
   -2.6735   -4.8536   -2.3697 H   0  0  0  0  0  0  0  0  0  0  0  0
   -2.3482   -6.1350   -1.2065 H   0  0  0  0  0  0  0  0  0  0  0  0
   -4.6270   -3.0945   -1.4130 H   0  0  0  0  0  0  0  0  0  0  0  0
   -7.0312   -3.1737   -0.8679 H   0  0  0  0  0  0  0  0  0  0  0  0
   -8.0802   -5.3017   -0.1460 H   0  0  0  0  0  0  0  0  0  0  0  0
   -6.7166   -7.3662    0.0088 H   0  0  0  0  0  0  0  0  0  0  0  0
   -4.3122   -7.3121   -0.5287 H   0  0  0  0  0  0  0  0  0  0  0  0
    2.9055   -0.3710    1.0250 H   0  0  0  0  0  0  0  0  0  0  0  0
  1  2  2  0  0  0  0
  1 24  1  0  0  0  0
  2  3  1  0  0  0  0
  2  7  1  0  0  0  0
  3  4  1  0  0  0  0
  4  5  2  0  0  0  0
  4  6  1  0  0  0  0
  5  1  1  0  0  0  0
  5 25  1  0  0  0  0
  6  8  2  0  0  0  0
  7 23  1  0  0  0  0
  7 26  1  0  0  0  0
  7 27  1  0  0  0  0
  8  9  1  0  0  0  0
  9 10  1  0  0  0  0
  9 16  1  0  0  0  0
 10 11  2  0  0  0  0
 10 12  1  0  0  0  0
 11  6  1  0  0  0  0
 12 13  2  0  0  0  0
 12 28  1  0  0  0  0
 13 14  1  0  0  0  0
 13 29  1  0  0  0  0
 14 15  2  0  0  0  0
 14 30  1  0  0  0  0
 15 11  1  0  0  0  0
 15 31  1  0  0  0  0
 16 17  1  0  0  0  0
 16 32  1  0  0  0  0
 16 33  1  0  0  0  0
 17 18  2  0  0  0  0
 18 19  1  0  0  0  0
 18 34  1  0  0  0  0
 19 20  2  0  0  0  0
 19 35  1  0  0  0  0
 20 21  1  0  0  0  0
 20 36  1  0  0  0  0
 21 22  2  0  0  0  0
 21 37  1  0  0  0  0
 22 17  1  0  0  0  0
 22 38  1  0  0  0  0
 23 39  1  0  0  0  0
M  END
>  <Mol_ID>
2732

>  <Formula>
C19H16N2O2

>  <MolWeight>
304.34254

>  <Cat>
S7958

>  <Name>
Lificiguat (YC-1)

>  <Synonyms>
N/A

>  <Target>
Guanylate Cyclase,HIF

>  <Form>
free base

>  <CAS>
170632-47-0

>  <URL>
http://selleckchem.com/products/lificiguat-yc-1.html

$$$$
