YF-2
 OpenBabel08302521243D

 51 52  0  0  0  0  0  0  0  0999 V2000
    0.4075   -1.7953    1.6454 F   0  0  0  0  0  0  0  0  0  0  0  0
   -0.5353   -0.5552    0.1278 F   0  0  0  0  0  0  0  0  0  0  0  0
    1.0569    0.2609    1.3570 F   0  0  0  0  0  0  0  0  0  0  0  0
    6.1117   -5.0529   -0.8603 O   0  0  0  0  0  0  0  0  0  0  0  0
    2.8142   -7.6598   -3.3554 O   0  0  0  0  0  0  0  0  0  0  0  0
    2.8120   -5.8199   -0.2816 O   0  0  0  0  0  0  0  0  0  0  0  0
    8.2353   -2.5296   -2.2050 N   0  0  0  0  0  0  0  0  0  0  0  0
    3.0213   -4.3084   -2.0718 N   0  0  0  0  0  0  0  0  0  0  0  0
    7.9210   -3.1759   -0.9009 C   0  0  0  0  0  0  0  0  0  0  0  0
    6.4551   -3.6655   -0.6264 C   0  0  0  0  0  0  0  0  0  0  0  0
    4.3557   -6.2104   -2.1170 C   0  0  0  0  0  0  0  0  0  0  0  0
    5.5912   -5.4673   -2.0634 C   0  0  0  0  0  0  0  0  0  0  0  0
    3.9613   -6.8746   -3.3245 C   0  0  0  0  0  0  0  0  0  0  0  0
    3.2700   -5.4754   -1.3548 C   0  0  0  0  0  0  0  0  0  0  0  0
    6.3035   -5.2592   -3.2324 C   0  0  0  0  0  0  0  0  0  0  0  0
    2.7570   -3.0160   -1.6371 C   0  0  0  0  0  0  0  0  0  0  0  0
    4.7274   -6.6383   -4.4711 C   0  0  0  0  0  0  0  0  0  0  0  0
    5.8524   -5.8054   -4.4327 C   0  0  0  0  0  0  0  0  0  0  0  0
    7.5977   -1.2144   -2.3559 C   0  0  0  0  0  0  0  0  0  0  0  0
    9.6918   -2.3204   -2.3398 C   0  0  0  0  0  0  0  0  0  0  0  0
    2.0131   -2.6591   -0.5211 C   0  0  0  0  0  0  0  0  0  0  0  0
    1.6695   -1.2994   -0.3472 C   0  0  0  0  0  0  0  0  0  0  0  0
    3.2894   -2.0186   -2.4749 C   0  0  0  0  0  0  0  0  0  0  0  0
    2.1703   -0.3217   -1.2318 C   0  0  0  0  0  0  0  0  0  0  0  0
    2.6083   -8.4545   -4.5482 C   0  0  0  0  0  0  0  0  0  0  0  0
    3.0158   -0.6754   -2.2702 C   0  0  0  0  0  0  0  0  0  0  0  0
    0.6681   -0.8637    0.6914 C   0  0  0  0  0  0  0  0  0  0  0  0
    1.4471   -9.4365   -4.4107 C   0  0  0  0  0  0  0  0  0  0  0  0
    3.4535   -4.3224   -2.9988 H   0  0  0  0  0  0  0  0  0  0  0  0
    8.1747   -2.4478   -0.1152 H   0  0  0  0  0  0  0  0  0  0  0  0
    8.5869   -4.0358   -0.7623 H   0  0  0  0  0  0  0  0  0  0  0  0
    5.6893   -2.9788   -0.9929 H   0  0  0  0  0  0  0  0  0  0  0  0
    6.3762   -3.6008    0.4693 H   0  0  0  0  0  0  0  0  0  0  0  0
    7.2084   -4.6609   -3.2326 H   0  0  0  0  0  0  0  0  0  0  0  0
    4.4542   -7.0438   -5.4419 H   0  0  0  0  0  0  0  0  0  0  0  0
    6.3958   -5.5993   -5.3526 H   0  0  0  0  0  0  0  0  0  0  0  0
    8.0333   -0.4578   -1.6898 H   0  0  0  0  0  0  0  0  0  0  0  0
    7.7285   -0.8588   -3.3863 H   0  0  0  0  0  0  0  0  0  0  0  0
    6.5225   -1.2518   -2.1725 H   0  0  0  0  0  0  0  0  0  0  0  0
   10.0770   -1.5768   -1.6285 H   0  0  0  0  0  0  0  0  0  0  0  0
   10.2516   -3.2496   -2.1935 H   0  0  0  0  0  0  0  0  0  0  0  0
    9.9312   -1.9657   -3.3506 H   0  0  0  0  0  0  0  0  0  0  0  0
    1.6385   -3.4176    0.1633 H   0  0  0  0  0  0  0  0  0  0  0  0
    3.9538   -2.2876   -3.2944 H   0  0  0  0  0  0  0  0  0  0  0  0
    1.8770    0.7224   -1.1247 H   0  0  0  0  0  0  0  0  0  0  0  0
    2.3754   -7.7915   -5.3906 H   0  0  0  0  0  0  0  0  0  0  0  0
    3.5070   -9.0414   -4.7805 H   0  0  0  0  0  0  0  0  0  0  0  0
    3.4295    0.0706   -2.9417 H   0  0  0  0  0  0  0  0  0  0  0  0
    0.5680   -8.9701   -3.9595 H   0  0  0  0  0  0  0  0  0  0  0  0
    1.1653   -9.8341   -5.3949 H   0  0  0  0  0  0  0  0  0  0  0  0
    1.7301  -10.2915   -3.7878 H   0  0  0  0  0  0  0  0  0  0  0  0
  1 27  1  0  0  0  0
  2 27  1  0  0  0  0
  3 27  1  0  0  0  0
  4 10  1  0  0  0  0
  4 12  1  0  0  0  0
  5 13  1  0  0  0  0
  5 25  1  0  0  0  0
  6 14  2  0  0  0  0
  7  9  1  0  0  0  0
  7 19  1  0  0  0  0
  7 20  1  0  0  0  0
  8 14  1  0  0  0  0
  8 16  1  0  0  0  0
  8 29  1  0  0  0  0
  9 10  1  0  0  0  0
  9 30  1  0  0  0  0
  9 31  1  0  0  0  0
 10 32  1  0  0  0  0
 10 33  1  0  0  0  0
 11 12  2  0  0  0  0
 11 13  1  0  0  0  0
 11 14  1  0  0  0  0
 12 15  1  0  0  0  0
 13 17  2  0  0  0  0
 15 18  2  0  0  0  0
 15 34  1  0  0  0  0
 16 21  2  0  0  0  0
 16 23  1  0  0  0  0
 17 18  1  0  0  0  0
 17 35  1  0  0  0  0
 18 36  1  0  0  0  0
 19 37  1  0  0  0  0
 19 38  1  0  0  0  0
 19 39  1  0  0  0  0
 20 40  1  0  0  0  0
 20 41  1  0  0  0  0
 20 42  1  0  0  0  0
 21 22  1  0  0  0  0
 21 43  1  0  0  0  0
 22 24  2  0  0  0  0
 22 27  1  0  0  0  0
 23 26  2  0  0  0  0
 23 44  1  0  0  0  0
 24 26  1  0  0  0  0
 24 45  1  0  0  0  0
 25 28  1  0  0  0  0
 25 46  1  0  0  0  0
 25 47  1  0  0  0  0
 26 48  1  0  0  0  0
 28 49  1  0  0  0  0
 28 50  1  0  0  0  0
 28 51  1  0  0  0  0
M  END
>  <Mol_ID>
5030

>  <Formula>
C20H22ClF3N2O3

>  <MolWeight>
430.8484896

>  <Cat>
S0022

>  <Name>
YF-2

>  <Synonyms>
N/A

>  <Target>
Epigenetic Reader Domain,Histone Acetyltransferase

>  <Form>
free base

>  <CAS>
1311423-89-8

>  <URL>
http://www.selleckchem.com/products/yf-2.html

$$$$
