Yibeissine
 OpenBabel08302521463D

 73 78  0  0  1  0  0  0  0  0999 V2000
   -2.2652   -2.2128    1.7799 C   0  0  0  0  0  0  0  0  0  0  0  0
   -1.7940    2.6927    3.0084 C   0  0  0  0  0  0  0  0  0  0  0  0
   -1.0214   -3.3486   -0.4890 O   0  0  0  0  0  0  0  0  0  0  0  0
   -3.7463    1.4880   -2.6500 C   0  0  0  0  0  0  0  0  0  0  0  0
    1.5429   -4.8298   -0.4034 C   0  0  0  0  0  0  0  0  0  0  0  0
    3.7165   -1.4041   -3.1743 O   0  0  0  0  0  0  0  0  0  0  0  0
    5.8226   -5.0546   -1.4721 O   0  0  0  0  0  0  0  0  0  0  0  0
   -1.6074    0.2687    2.1044 C   0  0  1  0  0  0  0  0  0  0  0  0
   -1.5206   -0.9935    1.2274 C   0  0  0  0  0  0  0  0  0  0  0  0
   -1.3746    1.8093    1.8178 C   0  0  1  0  0  0  0  0  0  0  0  0
   -3.0302    0.2844    2.2146 O   0  0  0  0  0  0  0  0  0  0  0  0
   -0.4835   -0.0849    3.0888 C   0  0  0  0  0  0  0  0  0  0  0  0
   -0.5622   -1.0805    0.2949 C   0  0  0  0  0  0  0  0  0  0  0  0
   -2.2892    1.9686    0.6427 C   0  0  1  0  0  0  0  0  0  0  0  0
   -3.4885    1.1115    1.0860 C   0  0  1  0  0  0  0  0  0  0  0  0
    0.8453   -0.2729    2.2228 C   0  0  0  0  0  0  0  0  0  0  0  0
    0.6591   -0.2278    0.6160 C   0  0  1  0  0  0  0  0  0  0  0  0
   -0.1740   -2.2362   -0.5891 C   0  0  1  0  0  0  0  0  0  0  0  0
   -2.6644    3.2379    0.0509 N   0  0  0  0  0  0  0  0  0  0  0  0
   -3.8993    0.4981   -0.2707 C   0  0  0  0  0  0  0  0  0  0  0  0
    1.7809   -0.9815   -0.1157 C   0  0  1  0  0  0  0  0  0  0  0  0
    1.2637   -2.4240   -0.0231 C   0  0  3  0  0  0  0  0  0  0  0  0
   -3.9352    3.0903   -0.6789 C   0  0  0  0  0  0  0  0  0  0  0  0
   -4.2841    1.6734   -1.2347 C   0  0  3  0  0  0  0  0  0  0  0  0
    2.0568   -0.6511   -1.6012 C   0  0  0  0  0  0  0  0  0  0  0  0
    2.2371   -3.4489   -0.5617 C   0  0  3  0  0  0  0  0  0  0  0  0
    2.9044   -1.7301   -2.3056 C   0  0  0  0  0  0  0  0  0  0  0  0
    2.6045   -3.2184   -2.0304 C   0  0  3  0  0  0  0  0  0  0  0  0
    3.5251   -3.3574    0.3499 C   0  0  0  0  0  0  0  0  0  0  0  0
    3.7577   -4.1927   -2.3768 C   0  0  0  0  0  0  0  0  0  0  0  0
    4.8898   -3.1816   -0.3316 C   0  0  0  0  0  0  0  0  0  0  0  0
    5.0720   -3.8589   -1.6803 C   0  0  3  0  0  0  0  0  0  0  0  0
   -3.2646   -2.3117    1.3663 H   0  0  0  0  0  0  0  0  0  0  0  0
   -2.3586   -2.1521    2.8756 H   0  0  0  0  0  0  0  0  0  0  0  0
   -1.7079   -3.1479    1.6408 H   0  0  0  0  0  0  0  0  0  0  0  0
   -1.1032    2.6046    3.8588 H   0  0  0  0  0  0  0  0  0  0  0  0
   -2.7950    2.4274    3.4133 H   0  0  0  0  0  0  0  0  0  0  0  0
   -1.8318    3.7488    2.7470 H   0  0  0  0  0  0  0  0  0  0  0  0
   -1.9123   -3.0341   -0.6982 H   0  0  0  0  0  0  0  0  0  0  0  0
   -3.7803    0.4449   -2.9808 H   0  0  0  0  0  0  0  0  0  0  0  0
   -2.7153    1.8503   -2.7579 H   0  0  0  0  0  0  0  0  0  0  0  0
   -4.3606    2.0674   -3.3585 H   0  0  0  0  0  0  0  0  0  0  0  0
    0.7033   -4.9205   -1.1048 H   0  0  0  0  0  0  0  0  0  0  0  0
    2.2001   -5.6796   -0.5974 H   0  0  0  0  0  0  0  0  0  0  0  0
    1.1448   -4.9635    0.6071 H   0  0  0  0  0  0  0  0  0  0  0  0
    6.3959   -5.1798   -2.2482 H   0  0  0  0  0  0  0  0  0  0  0  0
   -0.3439    2.0786    1.5777 H   0  0  0  0  0  0  0  0  0  0  0  0
   -0.6887   -0.9881    3.6791 H   0  0  0  0  0  0  0  0  0  0  0  0
   -0.2993    0.6766    3.8535 H   0  0  0  0  0  0  0  0  0  0  0  0
   -1.7283    1.4809   -0.1698 H   0  0  0  0  0  0  0  0  0  0  0  0
   -4.3142    1.6986    1.4911 H   0  0  0  0  0  0  0  0  0  0  0  0
    1.2635   -1.2417    2.5201 H   0  0  0  0  0  0  0  0  0  0  0  0
    1.5950    0.4695    2.5184 H   0  0  0  0  0  0  0  0  0  0  0  0
    0.5773    0.7938    0.2382 H   0  0  0  0  0  0  0  0  0  0  0  0
   -0.1958   -1.9334   -1.6364 H   0  0  0  0  0  0  0  0  0  0  0  0
   -2.7699    3.9625    0.7604 H   0  0  0  0  0  0  0  0  0  0  0  0
   -4.7137   -0.2275   -0.1561 H   0  0  0  0  0  0  0  0  0  0  0  0
   -3.0908   -0.0736   -0.7115 H   0  0  0  0  0  0  0  0  0  0  0  0
    2.7126   -0.7904    0.4280 H   0  0  0  0  0  0  0  0  0  0  0  0
    1.1174   -2.7119    1.0320 H   0  0  0  0  0  0  0  0  0  0  0  0
   -3.9290    3.8302   -1.5135 H   0  0  0  0  0  0  0  0  0  0  0  0
   -4.7477    3.4114   -0.0295 H   0  0  0  0  0  0  0  0  0  0  0  0
   -5.3970    1.6362   -1.3209 H   0  0  0  0  0  0  0  0  0  0  0  0
    1.1420   -0.5077   -2.1897 H   0  0  0  0  0  0  0  0  0  0  0  0
    2.5977    0.3003   -1.6571 H   0  0  0  0  0  0  0  0  0  0  0  0
    1.7498   -3.4691   -2.6757 H   0  0  0  0  0  0  0  0  0  0  0  0
    3.4617   -2.4748    1.0029 H   0  0  0  0  0  0  0  0  0  0  0  0
    3.5409   -4.1727    1.0716 H   0  0  0  0  0  0  0  0  0  0  0  0
    3.4853   -5.2144   -2.0828 H   0  0  0  0  0  0  0  0  0  0  0  0
    3.9124   -4.2772   -3.4573 H   0  0  0  0  0  0  0  0  0  0  0  0
    5.0642   -2.1079   -0.4795 H   0  0  0  0  0  0  0  0  0  0  0  0
    5.6662   -3.5040    0.3754 H   0  0  0  0  0  0  0  0  0  0  0  0
    5.6768   -3.2082   -2.3235 H   0  0  0  0  0  0  0  0  0  0  0  0
  1  9  1  0  0  0  0
  1 33  1  0  0  0  0
  1 34  1  0  0  0  0
  1 35  1  0  0  0  0
  2 36  1  0  0  0  0
  2 37  1  0  0  0  0
  2 38  1  0  0  0  0
  3 39  1  0  0  0  0
  4 40  1  0  0  0  0
  4 41  1  0  0  0  0
  4 42  1  0  0  0  0
  5 43  1  0  0  0  0
  5 44  1  0  0  0  0
  5 45  1  0  0  0  0
  6 27  2  0  0  0  0
  7 46  1  0  0  0  0
  8  9  1  6  0  0  0
  8 10  1  0  0  0  0
  8 11  1  0  0  0  0
  8 12  1  0  0  0  0
  9 13  2  0  0  0  0
 10  2  1  0  0  0  0
 10 14  1  0  0  0  0
 10 47  1  6  0  0  0
 11 15  1  0  0  0  0
 12 16  1  0  0  0  0
 12 48  1  0  0  0  0
 12 49  1  0  0  0  0
 13 17  1  0  0  0  0
 13 18  1  0  0  0  0
 14 15  1  0  0  0  0
 14 19  1  0  0  0  0
 14 50  1  6  0  0  0
 15 20  1  0  0  0  0
 15 51  1  1  0  0  0
 16 52  1  0  0  0  0
 16 53  1  0  0  0  0
 17 16  1  0  0  0  0
 17 21  1  0  0  0  0
 17 54  1  6  0  0  0
 18 55  1  6  0  0  0
 18  3  1  0  0  0  0
 19 23  1  0  0  0  0
 19 56  1  0  0  0  0
 20 24  1  0  0  0  0
 20 57  1  0  0  0  0
 20 58  1  0  0  0  0
 21 22  1  0  0  0  0
 21 25  1  0  0  0  0
 21 59  1  1  0  0  0
 22 18  1  0  0  0  0
 22 26  1  0  0  0  0
 22 60  1  0  0  0  0
 23 24  1  0  0  0  0
 23 61  1  0  0  0  0
 23 62  1  0  0  0  0
 24  4  1  0  0  0  0
 24 63  1  0  0  0  0
 25 27  1  0  0  0  0
 25 64  1  0  0  0  0
 25 65  1  0  0  0  0
 26  5  1  0  0  0  0
 26 28  1  0  0  0  0
 26 29  1  0  0  0  0
 27 28  1  0  0  0  0
 28 30  1  0  0  0  0
 28 66  1  0  0  0  0
 29 31  1  0  0  0  0
 29 67  1  0  0  0  0
 29 68  1  0  0  0  0
 30 32  1  0  0  0  0
 30 69  1  0  0  0  0
 30 70  1  0  0  0  0
 31 32  1  0  0  0  0
 31 71  1  0  0  0  0
 31 72  1  0  0  0  0
 32  7  1  0  0  0  0
 32 73  1  0  0  0  0
M  END
>  <Mol_ID>
9599

>  <Formula>
C27H41NO4

>  <MolWeight>
443.61874

>  <Cat>
E2127

>  <Name>
Yibeissine

>  <Synonyms>
N/A

>  <Target>
Others

>  <Form>
free base

>  <CAS>
143502-51-6

>  <URL>
https://www.selleckchem.com/products/yibeissine.html

$$$$
