YK-4-279.cdx
 OpenBabel08302519583D

 37 39  0  0  0  0  0  0  0  0999 V2000
    1.9525    1.7919   -0.1363 C   0  0  0  0  0  0  0  0  0  0  0  0
    2.4047    0.4675   -0.2889 C   0  0  0  0  0  0  0  0  0  0  0  0
    1.4993   -0.5867   -0.4328 C   0  0  0  0  0  0  0  0  0  0  0  0
    0.1575   -0.2772   -0.3940 C   0  0  0  0  0  0  0  0  0  0  0  0
   -0.3034    1.0256   -0.1942 C   0  0  0  0  0  0  0  0  0  0  0  0
    0.5862    2.0807   -0.0885 C   0  0  0  0  0  0  0  0  0  0  0  0
   -0.9111   -1.1499   -0.5503 N   0  0  0  0  0  0  0  0  0  0  0  0
   -2.1272   -0.4905   -0.4203 C   0  0  0  0  0  0  0  0  0  0  0  0
   -1.8039    1.0109   -0.1415 C   0  0  3  0  0  0  0  0  0  0  0  0
   -2.2982    1.8707   -1.1756 O   0  0  0  0  0  0  0  0  0  0  0  0
   -2.4325    1.4893    1.1600 C   0  0  0  0  0  0  0  0  0  0  0  0
   -2.0452    0.7781    2.4584 C   0  0  0  0  0  0  0  0  0  0  0  0
   -1.3474   -0.2240    2.5139 O   0  0  0  0  0  0  0  0  0  0  0  0
   -2.5458    1.4098    3.7230 C   0  0  0  0  0  0  0  0  0  0  0  0
   -3.6887    2.2130    3.7061 C   0  0  0  0  0  0  0  0  0  0  0  0
   -4.0587    2.9338    4.8393 C   0  0  0  0  0  0  0  0  0  0  0  0
   -3.3192    2.8383    6.0160 C   0  0  0  0  0  0  0  0  0  0  0  0
   -2.2187    1.9819    6.0689 C   0  0  0  0  0  0  0  0  0  0  0  0
   -1.8304    1.2652    4.9212 C   0  0  0  0  0  0  0  0  0  0  0  0
   -3.7296    3.6946    6.9969 O   0  0  0  0  0  0  0  0  0  0  0  0
   -3.5003    3.2966    8.3396 C   0  0  0  0  0  0  0  0  0  0  0  0
   -3.2316   -0.9826   -0.5939 O   0  0  0  0  0  0  0  0  0  0  0  0
    2.6768    2.5991   -0.0493 H   0  0  0  0  0  0  0  0  0  0  0  0
    3.4731    0.2648   -0.2974 H   0  0  0  0  0  0  0  0  0  0  0  0
    1.8456   -1.6058   -0.5573 H   0  0  0  0  0  0  0  0  0  0  0  0
    0.2357    3.1022    0.0211 H   0  0  0  0  0  0  0  0  0  0  0  0
   -0.8412   -2.1401   -0.7273 H   0  0  0  0  0  0  0  0  0  0  0  0
   -2.2539    1.3640   -2.0060 H   0  0  0  0  0  0  0  0  0  0  0  0
   -2.1973    2.5523    1.2915 H   0  0  0  0  0  0  0  0  0  0  0  0
   -3.5176    1.4021    1.0484 H   0  0  0  0  0  0  0  0  0  0  0  0
   -4.3046    2.3178    2.8191 H   0  0  0  0  0  0  0  0  0  0  0  0
   -4.9242    3.5909    4.7991 H   0  0  0  0  0  0  0  0  0  0  0  0
   -1.6139    1.8912    6.9650 H   0  0  0  0  0  0  0  0  0  0  0  0
   -0.9468    0.6311    4.9571 H   0  0  0  0  0  0  0  0  0  0  0  0
   -4.0222    2.3600    8.5578 H   0  0  0  0  0  0  0  0  0  0  0  0
   -2.4345    3.2236    8.5712 H   0  0  0  0  0  0  0  0  0  0  0  0
   -3.9236    4.0746    8.9834 H   0  0  0  0  0  0  0  0  0  0  0  0
  1  2  2  0  0  0  0
  1 23  1  0  0  0  0
  2  3  1  0  0  0  0
  2 24  1  0  0  0  0
  3  4  2  0  0  0  0
  3 25  1  0  0  0  0
  4  5  1  0  0  0  0
  4  7  1  0  0  0  0
  5  6  2  0  0  0  0
  6  1  1  0  0  0  0
  6 26  1  0  0  0  0
  7  8  1  0  0  0  0
  7 27  1  0  0  0  0
  8  9  1  0  0  0  0
  8 22  2  0  0  0  0
  9  5  1  0  0  0  0
  9 10  1  0  0  0  0
  9 11  1  0  0  0  0
 10 28  1  0  0  0  0
 11 12  1  0  0  0  0
 11 29  1  0  0  0  0
 11 30  1  0  0  0  0
 12 13  2  0  0  0  0
 12 14  1  0  0  0  0
 14 15  2  0  0  0  0
 15 16  1  0  0  0  0
 15 31  1  0  0  0  0
 16 17  2  0  0  0  0
 16 32  1  0  0  0  0
 17 18  1  0  0  0  0
 17 20  1  0  0  0  0
 18 19  2  0  0  0  0
 18 33  1  0  0  0  0
 19 14  1  0  0  0  0
 19 34  1  0  0  0  0
 20 21  1  0  0  0  0
 21 35  1  0  0  0  0
 21 36  1  0  0  0  0
 21 37  1  0  0  0  0
M  END
>  <Mol_ID>
2512

>  <Formula>
C17H13Cl2NO4

>  <MolWeight>
366.19542

>  <Cat>
S7679

>  <Name>
YK-4-279

>  <Synonyms>
N/A

>  <Target>
DNA/RNA Synthesis

>  <Form>
free base

>  <CAS>
1037184-44-3

>  <URL>
http://selleckchem.com/products/yk-4-279.html

$$$$
