YL-109
 OpenBabel08302521223D

 29 31  0  0  0  0  0  0  0  0999 V2000
   -1.2178   -0.5376    1.4744 S   0  0  0  0  0  0  0  0  0  0  0  0
   -2.0153   -0.8914   -0.0114 C   0  0  0  0  0  0  0  0  0  0  0  0
   -1.3251   -0.5949   -1.0951 N   0  0  0  0  0  0  0  0  0  0  0  0
   -0.0710   -0.1136   -0.7507 C   0  0  0  0  0  0  0  0  0  0  0  0
    0.1726   -0.0088    0.6184 C   0  0  0  0  0  0  0  0  0  0  0  0
    0.9475    0.2683   -1.6479 C   0  0  0  0  0  0  0  0  0  0  0  0
    2.1682    0.7437   -1.1547 C   0  0  0  0  0  0  0  0  0  0  0  0
    2.3853    0.8416    0.2160 C   0  0  0  0  0  0  0  0  0  0  0  0
    1.3931    0.4666    1.1257 C   0  0  0  0  0  0  0  0  0  0  0  0
   -3.3827   -1.4438   -0.0231 C   0  0  0  0  0  0  0  0  0  0  0  0
   -4.2413   -1.1408   -1.1000 C   0  0  0  0  0  0  0  0  0  0  0  0
   -5.5407   -1.6527   -1.1429 C   0  0  0  0  0  0  0  0  0  0  0  0
   -5.9758   -2.4779   -0.1012 C   0  0  0  0  0  0  0  0  0  0  0  0
   -5.1489   -2.8014    0.9636 C   0  0  0  0  0  0  0  0  0  0  0  0
   -3.8536   -2.2876    0.9998 C   0  0  0  0  0  0  0  0  0  0  0  0
   -6.4718   -1.4318   -2.1254 O   0  0  0  0  0  0  0  0  0  0  0  0
   -6.0725   -0.6033   -3.2111 C   0  0  0  0  0  0  0  0  0  0  0  0
   -7.2419   -2.9960   -0.1121 O   0  0  0  0  0  0  0  0  0  0  0  0
    0.7770    0.1882   -2.7168 H   0  0  0  0  0  0  0  0  0  0  0  0
    2.9511    1.0381   -1.8498 H   0  0  0  0  0  0  0  0  0  0  0  0
    3.3381    1.2137    0.5873 H   0  0  0  0  0  0  0  0  0  0  0  0
    1.5621    0.5404    2.1957 H   0  0  0  0  0  0  0  0  0  0  0  0
   -3.8646   -0.4971   -1.8904 H   0  0  0  0  0  0  0  0  0  0  0  0
   -5.5079   -3.4522    1.7551 H   0  0  0  0  0  0  0  0  0  0  0  0
   -3.2155   -2.5700    1.8336 H   0  0  0  0  0  0  0  0  0  0  0  0
   -5.8600    0.4150   -2.8700 H   0  0  0  0  0  0  0  0  0  0  0  0
   -5.2175   -1.0318   -3.7438 H   0  0  0  0  0  0  0  0  0  0  0  0
   -6.9096   -0.5518   -3.9144 H   0  0  0  0  0  0  0  0  0  0  0  0
   -7.6449   -2.6570   -0.9353 H   0  0  0  0  0  0  0  0  0  0  0  0
  1  2  1  0  0  0  0
  1  5  1  0  0  0  0
  2  3  2  0  0  0  0
  2 10  1  0  0  0  0
  3  4  1  0  0  0  0
  4  5  2  0  0  0  0
  4  6  1  0  0  0  0
  5  9  1  0  0  0  0
  6  7  2  0  0  0  0
  6 19  1  0  0  0  0
  7  8  1  0  0  0  0
  7 20  1  0  0  0  0
  8  9  2  0  0  0  0
  8 21  1  0  0  0  0
  9 22  1  0  0  0  0
 10 11  2  0  0  0  0
 10 15  1  0  0  0  0
 11 12  1  0  0  0  0
 11 23  1  0  0  0  0
 12 13  2  0  0  0  0
 12 16  1  0  0  0  0
 13 14  1  0  0  0  0
 13 18  1  0  0  0  0
 14 15  2  0  0  0  0
 14 24  1  0  0  0  0
 15 25  1  0  0  0  0
 16 17  1  0  0  0  0
 17 26  1  0  0  0  0
 17 27  1  0  0  0  0
 17 28  1  0  0  0  0
 18 29  1  0  0  0  0
M  END
>  <Mol_ID>
4739

>  <Formula>
C14H11NO2S

>  <MolWeight>
257.30764

>  <Cat>
S6607

>  <Name>
YL-109

>  <Synonyms>
N/A

>  <Target>
Others

>  <Form>
Free Base

>  <CAS>
36341-25-0

>  <URL>
http://www.selleck.cn/products/yl-109.html

$$$$
