YM-58483 (BTP2).cdx
 OpenBabel08302520433D

 37 39  0  0  0  0  0  0  0  0999 V2000
    1.3610   -0.2016   -0.0790 C   0  0  0  0  0  0  0  0  0  0  0  0
    0.5171   -1.2980    0.1183 C   0  0  0  0  0  0  0  0  0  0  0  0
   -0.8388   -1.0687    0.3704 C   0  0  0  0  0  0  0  0  0  0  0  0
   -1.3337    0.2322    0.4789 C   0  0  0  0  0  0  0  0  0  0  0  0
   -0.4698    1.3259    0.3672 C   0  0  0  0  0  0  0  0  0  0  0  0
    0.8697    1.1093    0.0258 C   0  0  0  0  0  0  0  0  0  0  0  0
   -0.9367    2.6440    0.6252 N   0  0  0  0  0  0  0  0  0  0  0  0
    0.9258   -2.6449    0.0468 N   0  0  0  0  0  0  0  0  0  0  0  0
    2.2165   -3.1399   -0.0669 C   0  0  0  0  0  0  0  0  0  0  0  0
    3.2151   -2.4346    0.0280 O   0  0  0  0  0  0  0  0  0  0  0  0
    2.3137   -4.5697   -0.3044 C   0  0  0  0  0  0  0  0  0  0  0  0
    3.4314   -5.3925   -0.3703 C   0  0  0  0  0  0  0  0  0  0  0  0
    3.1500   -6.7243   -0.6703 N   0  0  0  0  0  0  0  0  0  0  0  0
    1.8570   -6.9376   -0.8250 N   0  0  0  0  0  0  0  0  0  0  0  0
    0.9482   -5.5600   -0.6153 S   0  0  0  0  0  0  0  0  0  0  0  0
   -1.8908    3.0682    1.5219 C   0  0  0  0  0  0  0  0  0  0  0  0
   -2.1415    4.3935    1.2278 C   0  0  0  0  0  0  0  0  0  0  0  0
   -1.2138    4.7458    0.2235 C   0  0  0  0  0  0  0  0  0  0  0  0
   -0.4208    3.6957   -0.0713 N   0  0  0  0  0  0  0  0  0  0  0  0
   -1.0874    6.1058   -0.4192 C   0  0  0  0  0  0  0  0  0  0  0  0
   -2.4522    2.2525    2.6135 C   0  0  0  0  0  0  0  0  0  0  0  0
    4.8616   -5.0399   -0.1775 C   0  0  0  0  0  0  0  0  0  0  0  0
   -1.9777    6.9881    0.1184 F   0  0  0  0  0  0  0  0  0  0  0  0
    0.1424    6.6558   -0.2533 F   0  0  0  0  0  0  0  0  0  0  0  0
   -1.3436    6.0754   -1.7528 F   0  0  0  0  0  0  0  0  0  0  0  0
   -1.7487    1.1381    2.9179 F   0  0  0  0  0  0  0  0  0  0  0  0
   -2.5248    2.9707    3.7624 F   0  0  0  0  0  0  0  0  0  0  0  0
   -3.7165    1.8580    2.3225 F   0  0  0  0  0  0  0  0  0  0  0  0
    2.4150   -0.3270   -0.3102 H   0  0  0  0  0  0  0  0  0  0  0  0
   -1.5306   -1.8954    0.5115 H   0  0  0  0  0  0  0  0  0  0  0  0
   -2.3997    0.3596    0.6488 H   0  0  0  0  0  0  0  0  0  0  0  0
    1.5590    1.9422   -0.1076 H   0  0  0  0  0  0  0  0  0  0  0  0
    0.1883   -3.3340    0.1100 H   0  0  0  0  0  0  0  0  0  0  0  0
   -2.8633    5.0391    1.7140 H   0  0  0  0  0  0  0  0  0  0  0  0
    5.3081   -5.6982    0.5748 H   0  0  0  0  0  0  0  0  0  0  0  0
    5.4083   -5.1721   -1.1164 H   0  0  0  0  0  0  0  0  0  0  0  0
    5.0103   -4.0127    0.1589 H   0  0  0  0  0  0  0  0  0  0  0  0
  1  2  2  0  0  0  0
  1 29  1  0  0  0  0
  2  3  1  0  0  0  0
  2  8  1  0  0  0  0
  3  4  2  0  0  0  0
  3 30  1  0  0  0  0
  4  5  1  0  0  0  0
  4 31  1  0  0  0  0
  5  6  2  0  0  0  0
  5  7  1  0  0  0  0
  6  1  1  0  0  0  0
  6 32  1  0  0  0  0
  7 16  1  0  0  0  0
  8  9  1  0  0  0  0
  8 33  1  0  0  0  0
  9 10  2  0  0  0  0
  9 11  1  0  0  0  0
 11 12  2  0  0  0  0
 12 13  1  0  0  0  0
 12 22  1  0  0  0  0
 13 14  2  0  0  0  0
 14 15  1  0  0  0  0
 15 11  1  0  0  0  0
 16 17  2  0  0  0  0
 16 21  1  0  0  0  0
 17 18  1  0  0  0  0
 17 34  1  0  0  0  0
 18 19  2  0  0  0  0
 18 20  1  0  0  0  0
 19  7  1  0  0  0  0
 20 23  1  0  0  0  0
 20 24  1  0  0  0  0
 20 25  1  0  0  0  0
 21 26  1  0  0  0  0
 21 27  1  0  0  0  0
 21 28  1  0  0  0  0
 22 35  1  0  0  0  0
 22 36  1  0  0  0  0
 22 37  1  0  0  0  0
M  END
>  <Mol_ID>
4079

>  <Formula>
C15H9F6N5OS

>  <MolWeight>
421.3202792

>  <Cat>
S8380

>  <Name>
YM-58483 (BTP2)

>  <Synonyms>
N/A

>  <Target>
Calcium Channel

>  <Form>
free base

>  <CAS>
223499-30-7

>  <URL>
http://selleckchem.com/products/ym-58483-btp2.html

$$$$
