YM 90709
 OpenBabel08302520343D

 48 52  0  0  0  0  0  0  0  0999 V2000
    0.8491   -0.6380    0.0880 N   0  0  0  0  0  0  0  0  0  0  0  0
    0.0337    0.4877    0.0401 C   0  0  0  0  0  0  0  0  0  0  0  0
    2.1605   -0.2290    0.1970 C   0  0  0  0  0  0  0  0  0  0  0  0
    0.2428   -1.9701   -0.1656 C   0  0  0  0  0  0  0  0  0  0  0  0
   -1.4216    0.4194    0.0496 C   0  0  0  0  0  0  0  0  0  0  0  0
    0.8306    1.6038   -0.0723 C   0  0  0  0  0  0  0  0  0  0  0  0
    2.1494    1.1437   -0.0501 C   0  0  0  0  0  0  0  0  0  0  0  0
    3.3047   -0.9210    0.4555 N   0  0  0  0  0  0  0  0  0  0  0  0
   -1.1630   -2.0233    0.5339 C   0  0  0  0  0  0  0  0  0  0  0  0
    1.0639   -3.1606    0.3476 C   0  0  0  0  0  0  0  0  0  0  0  0
    0.0315   -2.1690   -1.6931 C   0  0  0  0  0  0  0  0  0  0  0  0
   -2.0319   -0.8100    0.2708 C   0  0  0  0  0  0  0  0  0  0  0  0
   -2.1906    1.5580   -0.1700 C   0  0  0  0  0  0  0  0  0  0  0  0
    3.2600    1.8785   -0.2479 N   0  0  0  0  0  0  0  0  0  0  0  0
    4.4293   -0.1537    0.3264 C   0  0  0  0  0  0  0  0  0  0  0  0
   -3.4313   -0.8660    0.2983 C   0  0  0  0  0  0  0  0  0  0  0  0
   -3.5798    1.5174   -0.1444 C   0  0  0  0  0  0  0  0  0  0  0  0
    4.3827    1.1887   -0.1313 C   0  0  0  0  0  0  0  0  0  0  0  0
    5.7031   -0.6461    0.6131 C   0  0  0  0  0  0  0  0  0  0  0  0
   -4.2177    0.2943    0.1029 C   0  0  0  0  0  0  0  0  0  0  0  0
   -4.0956    2.7743   -0.3166 O   0  0  0  0  0  0  0  0  0  0  0  0
    5.5245    1.8484   -0.5424 C   0  0  0  0  0  0  0  0  0  0  0  0
    6.8670    0.0463    0.2402 C   0  0  0  0  0  0  0  0  0  0  0  0
   -5.5874    0.2646    0.1395 O   0  0  0  0  0  0  0  0  0  0  0  0
   -5.4779    2.9768   -0.5419 C   0  0  0  0  0  0  0  0  0  0  0  0
    6.7645    1.2405   -0.4558 C   0  0  0  0  0  0  0  0  0  0  0  0
   -6.1741   -0.8124    0.8645 C   0  0  0  0  0  0  0  0  0  0  0  0
    0.5326    2.6312   -0.1767 H   0  0  0  0  0  0  0  0  0  0  0  0
   -1.0256   -2.0946    1.6210 H   0  0  0  0  0  0  0  0  0  0  0  0
   -1.6965   -2.9272    0.2128 H   0  0  0  0  0  0  0  0  0  0  0  0
    0.5130   -4.0991    0.1924 H   0  0  0  0  0  0  0  0  0  0  0  0
    2.0147   -3.2632   -0.1858 H   0  0  0  0  0  0  0  0  0  0  0  0
    1.2737   -3.0775    1.4178 H   0  0  0  0  0  0  0  0  0  0  0  0
   -0.5635   -1.3665   -2.1447 H   0  0  0  0  0  0  0  0  0  0  0  0
    0.9860   -2.2031   -2.2293 H   0  0  0  0  0  0  0  0  0  0  0  0
   -0.4971   -3.1096   -1.8967 H   0  0  0  0  0  0  0  0  0  0  0  0
   -1.7122    2.5200   -0.3551 H   0  0  0  0  0  0  0  0  0  0  0  0
   -3.8939   -1.8327    0.4753 H   0  0  0  0  0  0  0  0  0  0  0  0
    5.8023   -1.6057    1.1132 H   0  0  0  0  0  0  0  0  0  0  0  0
    5.4309    2.8434   -0.9742 H   0  0  0  0  0  0  0  0  0  0  0  0
    7.8504   -0.3593    0.4634 H   0  0  0  0  0  0  0  0  0  0  0  0
   -5.7603    2.6304   -1.5377 H   0  0  0  0  0  0  0  0  0  0  0  0
   -6.0986    2.5475    0.2473 H   0  0  0  0  0  0  0  0  0  0  0  0
   -5.6380    4.0580   -0.5119 H   0  0  0  0  0  0  0  0  0  0  0  0
    7.6313    1.7082   -0.9135 H   0  0  0  0  0  0  0  0  0  0  0  0
   -6.1131   -1.7406    0.2879 H   0  0  0  0  0  0  0  0  0  0  0  0
   -5.7174   -0.9319    1.8538 H   0  0  0  0  0  0  0  0  0  0  0  0
   -7.2326   -0.5834    1.0141 H   0  0  0  0  0  0  0  0  0  0  0  0
  1  2  1  0  0  0  0
  1  3  1  0  0  0  0
  1  4  1  0  0  0  0
  2  5  1  0  0  0  0
  2  6  2  0  0  0  0
  3  7  2  0  0  0  0
  3  8  1  0  0  0  0
  4  9  1  0  0  0  0
  4 10  1  0  0  0  0
  4 11  1  0  0  0  0
  5 12  2  0  0  0  0
  5 13  1  0  0  0  0
  6  7  1  0  0  0  0
  6 28  1  0  0  0  0
  7 14  1  0  0  0  0
  8 15  2  0  0  0  0
  9 12  1  0  0  0  0
  9 29  1  0  0  0  0
  9 30  1  0  0  0  0
 10 31  1  0  0  0  0
 10 32  1  0  0  0  0
 10 33  1  0  0  0  0
 11 34  1  0  0  0  0
 11 35  1  0  0  0  0
 11 36  1  0  0  0  0
 12 16  1  0  0  0  0
 13 17  2  0  0  0  0
 13 37  1  0  0  0  0
 14 18  2  0  0  0  0
 15 19  1  0  0  0  0
 15 18  1  0  0  0  0
 16 20  2  0  0  0  0
 16 38  1  0  0  0  0
 17 21  1  0  0  0  0
 17 20  1  0  0  0  0
 18 22  1  0  0  0  0
 19 23  2  0  0  0  0
 19 39  1  0  0  0  0
 20 24  1  0  0  0  0
 21 25  1  0  0  0  0
 22 26  2  0  0  0  0
 22 40  1  0  0  0  0
 23 26  1  0  0  0  0
 23 41  1  0  0  0  0
 24 27  1  0  0  0  0
 25 42  1  0  0  0  0
 25 43  1  0  0  0  0
 25 44  1  0  0  0  0
 26 45  1  0  0  0  0
 27 46  1  0  0  0  0
 27 47  1  0  0  0  0
 27 48  1  0  0  0  0
M  END
>  <Mol_ID>
3405

>  <Formula>
C22H21N3O2

>  <MolWeight>
359.42104

>  <Cat>
S5764

>  <Name>
YM 90709

>  <Synonyms>
N/A

>  <Target>
IL Receptor,Interleukins

>  <Form>
Free Base

>  <CAS>
163769-88-8

>  <URL>
http://www.selleckchem.com/products/ym-90709.html

$$$$
