YO 01027.cdx
 OpenBabel08302521433D

 57 60  0  0  0  0  0  0  0  0999 V2000
    5.4128   -3.8573   -5.2205 C   0  0  0  0  0  0  0  0  0  0  0  0
    4.4409   -4.6763   -5.7768 C   0  0  0  0  0  0  0  0  0  0  0  0
    3.1136   -4.4221   -5.4756 C   0  0  0  0  0  0  0  0  0  0  0  0
    2.7492   -3.3764   -4.6226 C   0  0  0  0  0  0  0  0  0  0  0  0
    3.7255   -2.5488   -4.0465 C   0  0  0  0  0  0  0  0  0  0  0  0
    5.0727   -2.8035   -4.3626 C   0  0  0  0  0  0  0  0  0  0  0  0
    6.6997   -4.0802   -5.5151 F   0  0  0  0  0  0  0  0  0  0  0  0
    2.1561   -5.1879   -6.0159 F   0  0  0  0  0  0  0  0  0  0  0  0
    3.3006   -1.3927   -3.1512 C   0  0  0  0  0  0  0  0  0  0  0  0
    3.5580   -1.6091   -1.6533 C   0  0  0  0  0  0  0  0  0  0  0  0
    2.6194   -2.0981   -0.7779 N   0  0  0  0  0  0  0  0  0  0  0  0
    4.6995   -1.4018   -1.2137 O   0  0  0  0  0  0  0  0  0  0  0  0
    1.1933   -1.6933   -0.4436 C   0  0  2  0  0  0  0  0  0  0  0  0
    0.3537   -2.8606    0.1791 C   0  0  0  0  0  0  0  0  0  0  0  0
   -1.0357   -2.8637    0.2614 N   0  0  0  0  0  0  0  0  0  0  0  0
    0.9081   -3.8846    0.5693 O   0  0  0  0  0  0  0  0  0  0  0  0
   -2.0898   -2.0728    1.0821 C   0  0  1  0  0  0  0  0  0  0  0  0
   -3.6280   -2.0525    0.7204 C   0  0  0  0  0  0  0  0  0  0  0  0
   -4.2750   -3.2124    0.2624 C   0  0  0  0  0  0  0  0  0  0  0  0
   -3.5183   -4.4215    0.0897 C   0  0  0  0  0  0  0  0  0  0  0  0
   -2.7570   -4.9615    1.1680 C   0  0  0  0  0  0  0  0  0  0  0  0
   -2.4671   -4.2068    2.3880 N   0  0  0  0  0  0  0  0  0  0  0  0
   -2.1530   -2.8162    2.4403 C   0  0  0  0  0  0  0  0  0  0  0  0
   -1.9935   -2.1882    3.4941 O   0  0  0  0  0  0  0  0  0  0  0  0
   -2.3020   -4.8760    3.6617 C   0  0  0  0  0  0  0  0  0  0  0  0
   -3.5418   -5.0082   -1.1885 C   0  0  0  0  0  0  0  0  0  0  0  0
   -2.7610   -6.1195   -1.4481 C   0  0  0  0  0  0  0  0  0  0  0  0
   -2.0142   -6.6699   -0.4136 C   0  0  0  0  0  0  0  0  0  0  0  0
   -2.0437   -6.1320    0.8895 C   0  0  0  0  0  0  0  0  0  0  0  0
   -4.4921   -1.0797    1.2675 C   0  0  0  0  0  0  0  0  0  0  0  0
   -5.9037   -1.2044    1.2445 C   0  0  0  0  0  0  0  0  0  0  0  0
   -6.5185   -2.3099    0.6304 C   0  0  0  0  0  0  0  0  0  0  0  0
   -5.6926   -3.3056    0.1537 C   0  0  0  0  0  0  0  0  0  0  0  0
    0.4716   -1.0728   -1.6104 C   0  0  0  0  0  0  0  0  0  0  0  0
    4.7138   -5.4929   -6.4368 H   0  0  0  0  0  0  0  0  0  0  0  0
    1.6934   -3.2094   -4.4344 H   0  0  0  0  0  0  0  0  0  0  0  0
    5.8718   -2.1811   -3.9677 H   0  0  0  0  0  0  0  0  0  0  0  0
    3.8616   -0.5014   -3.4668 H   0  0  0  0  0  0  0  0  0  0  0  0
    2.2639   -1.1431   -3.3569 H   0  0  0  0  0  0  0  0  0  0  0  0
    3.1252   -2.3282    0.0734 H   0  0  0  0  0  0  0  0  0  0  0  0
    1.3100   -0.9605    0.3622 H   0  0  0  0  0  0  0  0  0  0  0  0
   -1.1136   -3.8204    0.5734 H   0  0  0  0  0  0  0  0  0  0  0  0
   -1.7071   -1.0544    1.2065 H   0  0  0  0  0  0  0  0  0  0  0  0
   -1.2350   -4.9033    3.9051 H   0  0  0  0  0  0  0  0  0  0  0  0
   -2.7979   -4.2852    4.4439 H   0  0  0  0  0  0  0  0  0  0  0  0
   -2.7369   -5.8751    3.6671 H   0  0  0  0  0  0  0  0  0  0  0  0
   -4.1246   -4.5560   -1.9920 H   0  0  0  0  0  0  0  0  0  0  0  0
   -2.7206   -6.5168   -2.4616 H   0  0  0  0  0  0  0  0  0  0  0  0
   -1.3509   -7.5007   -0.6424 H   0  0  0  0  0  0  0  0  0  0  0  0
   -1.3749   -6.5619    1.6324 H   0  0  0  0  0  0  0  0  0  0  0  0
   -4.0995   -0.2525    1.8516 H   0  0  0  0  0  0  0  0  0  0  0  0
   -6.5502   -0.4897    1.7460 H   0  0  0  0  0  0  0  0  0  0  0  0
   -7.5917   -2.4295    0.6203 H   0  0  0  0  0  0  0  0  0  0  0  0
   -6.1513   -4.2258   -0.2119 H   0  0  0  0  0  0  0  0  0  0  0  0
   -0.5658   -0.8418   -1.3568 H   0  0  0  0  0  0  0  0  0  0  0  0
    0.9608   -0.1364   -1.8934 H   0  0  0  0  0  0  0  0  0  0  0  0
    0.4572   -1.7543   -2.4659 H   0  0  0  0  0  0  0  0  0  0  0  0
  1  2  2  0  0  0  0
  1  7  1  0  0  0  0
  2  3  1  0  0  0  0
  2 35  1  0  0  0  0
  3  4  2  0  0  0  0
  3  8  1  0  0  0  0
  4  5  1  0  0  0  0
  4 36  1  0  0  0  0
  5  6  2  0  0  0  0
  5  9  1  0  0  0  0
  6  1  1  0  0  0  0
  6 37  1  0  0  0  0
  9 10  1  0  0  0  0
  9 38  1  0  0  0  0
  9 39  1  0  0  0  0
 10 11  1  0  0  0  0
 10 12  2  0  0  0  0
 11 40  1  0  0  0  0
 13 34  1  0  0  0  0
 13 41  1  1  0  0  0
 13 14  1  0  0  0  0
 13 11  1  0  0  0  0
 14 15  1  0  0  0  0
 14 16  2  0  0  0  0
 15 42  1  0  0  0  0
 17 15  1  0  0  0  0
 17 18  1  0  0  0  0
 17 43  1  1  0  0  0
 18 19  2  0  0  0  0
 18 30  1  0  0  0  0
 19 20  1  0  0  0  0
 20 21  2  0  0  0  0
 20 26  1  0  0  0  0
 21 22  1  0  0  0  0
 22 23  1  0  0  0  0
 22 25  1  0  0  0  0
 23 17  1  0  0  0  0
 23 24  2  0  0  0  0
 25 44  1  0  0  0  0
 25 45  1  0  0  0  0
 25 46  1  0  0  0  0
 26 27  2  0  0  0  0
 26 47  1  0  0  0  0
 27 28  1  0  0  0  0
 27 48  1  0  0  0  0
 28 29  2  0  0  0  0
 28 49  1  0  0  0  0
 29 21  1  0  0  0  0
 29 50  1  0  0  0  0
 30 31  2  0  0  0  0
 30 51  1  0  0  0  0
 31 32  1  0  0  0  0
 31 52  1  0  0  0  0
 32 33  2  0  0  0  0
 32 53  1  0  0  0  0
 33 19  1  0  0  0  0
 33 54  1  0  0  0  0
 34 55  1  0  0  0  0
 34 56  1  0  0  0  0
 34 57  1  0  0  0  0
M  END
>  <Mol_ID>
873

>  <Formula>
C26H23F2N3O3

>  <MolWeight>
463.4759264

>  <Cat>
S2711

>  <Name>
Dibenzazepine (YO-01027)

>  <Synonyms>
DBZ

>  <Target>
Notch,Secretase

>  <Form>
free base

>  <CAS>
209984-56-5

>  <URL>
http://selleckchem.com/products/yo-01027.html

$$$$
