(Z)-Ligustilide
 OpenBabel08302521593D

 28 29  0  0  0  0  0  0  0  0999 V2000
    0.8746    0.0538   -0.1407 C   0  0  0  0  0  0  0  0  0  0  0  0
    0.1387   -1.0586    0.5490 C   0  0  0  0  0  0  0  0  0  0  0  0
    0.0361   -0.8380    2.0622 C   0  0  0  0  0  0  0  0  0  0  0  0
   -0.6865    0.4466    2.4495 C   0  0  0  0  0  0  0  0  0  0  0  0
   -2.1518    1.9466   -3.0872 O   0  0  0  0  0  0  0  0  0  0  0  0
    0.9665    1.9693   -1.6992 C   0  0  0  0  0  0  0  0  0  0  0  0
    0.1008    2.5266   -2.5381 C   0  0  0  0  0  0  0  0  0  0  0  0
    0.3503    0.8434   -1.0866 C   0  0  0  0  0  0  0  0  0  0  0  0
    2.3217    2.5343   -1.4309 C   0  0  0  0  0  0  0  0  0  0  0  0
   -1.1262    1.7236   -2.4662 C   0  0  0  0  0  0  0  0  0  0  0  0
    0.3605    3.7153   -3.2862 C   0  0  0  0  0  0  0  0  0  0  0  0
   -0.9436    0.6887   -1.5792 O   0  0  0  0  0  0  0  0  0  0  0  0
    2.6675    3.7724   -2.2978 C   0  0  0  0  0  0  0  0  0  0  0  0
    1.5622    4.3064   -3.1815 C   0  0  0  0  0  0  0  0  0  0  0  0
    1.8918    0.2268    0.2013 H   0  0  0  0  0  0  0  0  0  0  0  0
   -0.8670   -1.1915    0.1337 H   0  0  0  0  0  0  0  0  0  0  0  0
    0.6778   -1.9957    0.3644 H   0  0  0  0  0  0  0  0  0  0  0  0
   -0.4990   -1.6880    2.5012 H   0  0  0  0  0  0  0  0  0  0  0  0
    1.0385   -0.8312    2.5075 H   0  0  0  0  0  0  0  0  0  0  0  0
   -1.6627    0.5160    1.9601 H   0  0  0  0  0  0  0  0  0  0  0  0
   -0.8459    0.4752    3.5322 H   0  0  0  0  0  0  0  0  0  0  0  0
   -0.1005    1.3319    2.1806 H   0  0  0  0  0  0  0  0  0  0  0  0
    3.0868    1.7650   -1.5919 H   0  0  0  0  0  0  0  0  0  0  0  0
    2.3842    2.8203   -0.3727 H   0  0  0  0  0  0  0  0  0  0  0  0
   -0.4236    4.1149   -3.9219 H   0  0  0  0  0  0  0  0  0  0  0  0
    3.5244    3.5255   -2.9368 H   0  0  0  0  0  0  0  0  0  0  0  0
    3.0029    4.5798   -1.6352 H   0  0  0  0  0  0  0  0  0  0  0  0
    1.7701    5.2076   -3.7524 H   0  0  0  0  0  0  0  0  0  0  0  0
  1  2  1  0  0  0  0
  1  8  2  0  0  0  0
  1 15  1  0  0  0  0
  2  3  1  0  0  0  0
  2 16  1  0  0  0  0
  2 17  1  0  0  0  0
  3  4  1  0  0  0  0
  3 18  1  0  0  0  0
  3 19  1  0  0  0  0
  4 20  1  0  0  0  0
  4 21  1  0  0  0  0
  4 22  1  0  0  0  0
  5 10  2  0  0  0  0
  6  7  2  0  0  0  0
  6  8  1  0  0  0  0
  6  9  1  0  0  0  0
  7 10  1  0  0  0  0
  7 11  1  0  0  0  0
  8 12  1  0  0  0  0
  9 13  1  0  0  0  0
  9 23  1  0  0  0  0
  9 24  1  0  0  0  0
 10 12  1  0  0  0  0
 11 14  2  0  0  0  0
 11 25  1  0  0  0  0
 13 14  1  0  0  0  0
 13 26  1  0  0  0  0
 13 27  1  0  0  0  0
 14 28  1  0  0  0  0
M  END
>  <Mol_ID>
10128

>  <Formula>
C12H14O2

>  <MolWeight>
190.23836

>  <Cat>
S5470

>  <Name>
(Z)-Ligustilide

>  <Synonyms>
N/A

>  <Target>
Estrogen/progestogen Receptor

>  <Form>
free base

>  <CAS>
81944-09-4

>  <URL>
https://www.selleckchem.com/products/z-ligustilide.html

$$$$
