Z433927330
 OpenBabel08302521353D

 47 49  0  0  0  0  0  0  0  0999 V2000
   -7.3407   -4.2622   -2.9779 O   0  0  0  0  0  0  0  0  0  0  0  0
   -7.4120    0.2190    2.3762 O   0  0  0  0  0  0  0  0  0  0  0  0
   -5.3267   -3.4972   -3.7868 O   0  0  0  0  0  0  0  0  0  0  0  0
   -4.6835    6.5199    7.2939 N   0  0  0  0  0  0  0  0  0  0  0  0
   -5.5854    1.3015    3.2161 N   0  0  0  0  0  0  0  0  0  0  0  0
   -5.2813   -0.4201    1.7213 N   0  0  0  0  0  0  0  0  0  0  0  0
   -3.3758    6.8724    7.4227 N   0  0  0  0  0  0  0  0  0  0  0  0
   -5.8921    3.3439    4.7211 C   0  0  0  0  0  0  0  0  0  0  0  0
   -6.4719    2.2234    3.8904 C   0  0  0  0  0  0  0  0  0  0  0  0
   -5.0898    5.4712    6.4196 C   0  0  0  0  0  0  0  0  0  0  0  0
   -4.5367    3.6526    4.8781 C   0  0  0  0  0  0  0  0  0  0  0  0
   -6.8325    4.1416    5.4014 C   0  0  0  0  0  0  0  0  0  0  0  0
   -4.1364    4.7104    5.7198 C   0  0  0  0  0  0  0  0  0  0  0  0
   -6.4451    5.1843    6.2433 C   0  0  0  0  0  0  0  0  0  0  0  0
   -5.5642   -1.3719    0.7103 C   0  0  0  0  0  0  0  0  0  0  0  0
   -6.1928    0.3374    2.4209 C   0  0  0  0  0  0  0  0  0  0  0  0
   -5.9768   -2.9969   -1.5576 C   0  0  0  0  0  0  0  0  0  0  0  0
   -5.4836    7.3033    8.1070 C   0  0  0  0  0  0  0  0  0  0  0  0
   -6.8529   -1.7918    0.3572 C   0  0  0  0  0  0  0  0  0  0  0  0
   -4.4778   -1.8616   -0.0240 C   0  0  0  0  0  0  0  0  0  0  0  0
   -7.0615   -2.6029   -0.7696 C   0  0  0  0  0  0  0  0  0  0  0  0
   -4.6839   -2.6544   -1.1595 C   0  0  0  0  0  0  0  0  0  0  0  0
   -4.6676    8.2061    8.7424 C   0  0  0  0  0  0  0  0  0  0  0  0
   -3.3782    7.8935    8.2825 C   0  0  0  0  0  0  0  0  0  0  0  0
   -6.1470   -3.6294   -2.8895 C   0  0  0  0  0  0  0  0  0  0  0  0
   -7.7815   -4.5391   -4.3163 C   0  0  0  0  0  0  0  0  0  0  0  0
   -8.6780   -3.3920   -4.7452 C   0  0  0  0  0  0  0  0  0  0  0  0
   -4.6465    1.5898    2.9984 H   0  0  0  0  0  0  0  0  0  0  0  0
   -4.3096   -0.2069    1.8807 H   0  0  0  0  0  0  0  0  0  0  0  0
   -7.1327    2.6661    3.1332 H   0  0  0  0  0  0  0  0  0  0  0  0
   -7.0913    1.6084    4.5560 H   0  0  0  0  0  0  0  0  0  0  0  0
   -3.7642    3.0862    4.3676 H   0  0  0  0  0  0  0  0  0  0  0  0
   -7.8977    3.9417    5.2801 H   0  0  0  0  0  0  0  0  0  0  0  0
   -3.0728    4.9195    5.8325 H   0  0  0  0  0  0  0  0  0  0  0  0
   -7.2300    5.7470    6.7382 H   0  0  0  0  0  0  0  0  0  0  0  0
   -6.5507    7.1599    8.1745 H   0  0  0  0  0  0  0  0  0  0  0  0
   -7.7274   -1.4777    0.9187 H   0  0  0  0  0  0  0  0  0  0  0  0
   -3.4597   -1.5913    0.2399 H   0  0  0  0  0  0  0  0  0  0  0  0
   -8.0806   -2.8622   -1.0502 H   0  0  0  0  0  0  0  0  0  0  0  0
   -3.8267   -2.9649   -1.7564 H   0  0  0  0  0  0  0  0  0  0  0  0
   -4.9640    8.9730    9.4437 H   0  0  0  0  0  0  0  0  0  0  0  0
   -2.4442    8.3675    8.5429 H   0  0  0  0  0  0  0  0  0  0  0  0
   -6.9480   -4.6708   -5.0167 H   0  0  0  0  0  0  0  0  0  0  0  0
   -8.3442   -5.4779   -4.3020 H   0  0  0  0  0  0  0  0  0  0  0  0
   -8.1251   -2.4463   -4.7333 H   0  0  0  0  0  0  0  0  0  0  0  0
   -9.0823   -3.5519   -5.7475 H   0  0  0  0  0  0  0  0  0  0  0  0
   -9.5077   -3.2781   -4.0391 H   0  0  0  0  0  0  0  0  0  0  0  0
  1 25  1  0  0  0  0
  1 26  1  0  0  0  0
  2 16  2  0  0  0  0
  3 25  2  0  0  0  0
  4  7  1  0  0  0  0
  4 10  1  0  0  0  0
  4 18  1  0  0  0  0
  5  9  1  0  0  0  0
  5 16  1  0  0  0  0
  5 28  1  0  0  0  0
  6 15  1  0  0  0  0
  6 16  1  0  0  0  0
  6 29  1  0  0  0  0
  7 24  2  0  0  0  0
  8  9  1  0  0  0  0
  8 11  2  0  0  0  0
  8 12  1  0  0  0  0
  9 30  1  0  0  0  0
  9 31  1  0  0  0  0
 10 13  2  0  0  0  0
 10 14  1  0  0  0  0
 11 13  1  0  0  0  0
 11 32  1  0  0  0  0
 12 14  2  0  0  0  0
 12 33  1  0  0  0  0
 13 34  1  0  0  0  0
 14 35  1  0  0  0  0
 15 19  2  0  0  0  0
 15 20  1  0  0  0  0
 17 21  2  0  0  0  0
 17 22  1  0  0  0  0
 17 25  1  0  0  0  0
 18 23  2  0  0  0  0
 18 36  1  0  0  0  0
 19 21  1  0  0  0  0
 19 37  1  0  0  0  0
 20 22  2  0  0  0  0
 20 38  1  0  0  0  0
 21 39  1  0  0  0  0
 22 40  1  0  0  0  0
 23 24  1  0  0  0  0
 23 41  1  0  0  0  0
 24 42  1  0  0  0  0
 26 27  1  0  0  0  0
 26 43  1  0  0  0  0
 26 44  1  0  0  0  0
 27 45  1  0  0  0  0
 27 46  1  0  0  0  0
 27 47  1  0  0  0  0
M  END
>  <Mol_ID>
6677

>  <Formula>
C20H20N4O3

>  <MolWeight>
364.3978

>  <Cat>
S3585

>  <Name>
Z433927330

>  <Synonyms>
N/A

>  <Target>
Aquaporin

>  <Form>
Free base

>  <CAS>
1005883-72-6

>  <URL>
http://www.selleckchem.com/products/z433927330.html

$$$$
