Z944
 OpenBabel08302521323D

 53 54  0  0  0  0  0  0  0  0999 V2000
    1.2999    0.4718    0.4491 N   0  0  0  0  0  0  0  0  0  0  0  0
    0.5473    1.5621   -0.1988 C   0  0  0  0  0  0  0  0  0  0  0  0
   -0.8941    1.6455    0.3278 C   0  0  0  0  0  0  0  0  0  0  0  0
   -1.6666    0.3499    0.0428 C   0  0  0  0  0  0  0  0  0  0  0  0
   -0.8885   -0.8363    0.6104 C   0  0  0  0  0  0  0  0  0  0  0  0
    0.5942   -0.8191    0.2350 C   0  0  0  0  0  0  0  0  0  0  0  0
    3.5816    1.5619   -0.0978 C   0  0  0  0  0  0  0  0  0  0  0  0
    2.6586    0.3220   -0.1532 C   0  0  0  0  0  0  0  0  0  0  0  0
    4.0965    1.9999   -1.1192 O   0  0  0  0  0  0  0  0  0  0  0  0
    3.8489    2.0617    1.1625 N   0  0  0  0  0  0  0  0  0  0  0  0
    4.7433    3.2183    1.4386 C   0  0  0  0  0  0  0  0  0  0  0  0
    4.2539    4.4858    0.7087 C   0  0  0  0  0  0  0  0  0  0  0  0
    4.7104    3.5253    2.9493 C   0  0  0  0  0  0  0  0  0  0  0  0
    6.2254    2.9143    1.0987 C   0  0  0  0  0  0  0  0  0  0  0  0
   -3.0730    0.3448    0.6543 C   0  0  0  0  0  0  0  0  0  0  0  0
   -3.8972    1.4252    0.1701 N   0  0  0  0  0  0  0  0  0  0  0  0
   -4.6618    1.3056   -0.9661 C   0  0  0  0  0  0  0  0  0  0  0  0
   -5.4717    2.5011   -1.3125 C   0  0  0  0  0  0  0  0  0  0  0  0
   -5.0327    3.7967   -1.0107 C   0  0  0  0  0  0  0  0  0  0  0  0
   -5.8341    4.8979   -1.3196 C   0  0  0  0  0  0  0  0  0  0  0  0
   -7.0678    4.7005   -1.9369 C   0  0  0  0  0  0  0  0  0  0  0  0
   -7.4851    3.4118   -2.2540 C   0  0  0  0  0  0  0  0  0  0  0  0
   -6.7012    2.3090   -1.9523 C   0  0  0  0  0  0  0  0  0  0  0  0
   -4.7233    0.2942   -1.6506 O   0  0  0  0  0  0  0  0  0  0  0  0
   -8.6698    3.2342   -2.8493 F   0  0  0  0  0  0  0  0  0  0  0  0
    0.5277    1.4356   -1.2894 H   0  0  0  0  0  0  0  0  0  0  0  0
    1.0334    2.5210    0.0123 H   0  0  0  0  0  0  0  0  0  0  0  0
   -1.3966    2.4976   -0.1467 H   0  0  0  0  0  0  0  0  0  0  0  0
   -0.8818    1.8458    1.4072 H   0  0  0  0  0  0  0  0  0  0  0  0
   -1.7537    0.2390   -1.0459 H   0  0  0  0  0  0  0  0  0  0  0  0
   -0.9885   -0.8603    1.7020 H   0  0  0  0  0  0  0  0  0  0  0  0
   -1.3403   -1.7658    0.2363 H   0  0  0  0  0  0  0  0  0  0  0  0
    1.0877   -1.5936    0.8365 H   0  0  0  0  0  0  0  0  0  0  0  0
    0.6728   -1.1314   -0.8161 H   0  0  0  0  0  0  0  0  0  0  0  0
    3.1949   -0.4864    0.3569 H   0  0  0  0  0  0  0  0  0  0  0  0
    2.5754    0.0422   -1.2139 H   0  0  0  0  0  0  0  0  0  0  0  0
    3.2543    1.7211    1.9059 H   0  0  0  0  0  0  0  0  0  0  0  0
    3.3918    4.9222    1.2309 H   0  0  0  0  0  0  0  0  0  0  0  0
    5.0303    5.2574    0.6714 H   0  0  0  0  0  0  0  0  0  0  0  0
    3.9308    4.2963   -0.3187 H   0  0  0  0  0  0  0  0  0  0  0  0
    5.0449    2.6639    3.5391 H   0  0  0  0  0  0  0  0  0  0  0  0
    5.3593    4.3738    3.1934 H   0  0  0  0  0  0  0  0  0  0  0  0
    3.6937    3.7711    3.2822 H   0  0  0  0  0  0  0  0  0  0  0  0
    6.6876    2.3061    1.8857 H   0  0  0  0  0  0  0  0  0  0  0  0
    6.3538    2.3724    0.1603 H   0  0  0  0  0  0  0  0  0  0  0  0
    6.8144    3.8370    1.0408 H   0  0  0  0  0  0  0  0  0  0  0  0
   -3.5772   -0.6061    0.4299 H   0  0  0  0  0  0  0  0  0  0  0  0
   -3.0288    0.4436    1.7452 H   0  0  0  0  0  0  0  0  0  0  0  0
   -3.9718    2.2506    0.7500 H   0  0  0  0  0  0  0  0  0  0  0  0
   -4.0610    3.9683   -0.5575 H   0  0  0  0  0  0  0  0  0  0  0  0
   -5.4945    5.9034   -1.0805 H   0  0  0  0  0  0  0  0  0  0  0  0
   -7.7043    5.5459   -2.1830 H   0  0  0  0  0  0  0  0  0  0  0  0
   -7.0503    1.3092   -2.2066 H   0  0  0  0  0  0  0  0  0  0  0  0
  1  2  1  0  0  0  0
  1  6  1  0  0  0  0
  1  8  1  0  0  0  0
  2  3  1  0  0  0  0
  2 26  1  0  0  0  0
  2 27  1  0  0  0  0
  3  4  1  0  0  0  0
  3 28  1  0  0  0  0
  3 29  1  0  0  0  0
  4  5  1  0  0  0  0
  4 15  1  0  0  0  0
  4 30  1  0  0  0  0
  5  6  1  0  0  0  0
  5 31  1  0  0  0  0
  5 32  1  0  0  0  0
  6 33  1  0  0  0  0
  6 34  1  0  0  0  0
  7  8  1  0  0  0  0
  7  9  2  0  0  0  0
  7 10  1  0  0  0  0
  8 35  1  0  0  0  0
  8 36  1  0  0  0  0
 10 11  1  0  0  0  0
 10 37  1  0  0  0  0
 11 12  1  0  0  0  0
 11 13  1  0  0  0  0
 11 14  1  0  0  0  0
 12 38  1  0  0  0  0
 12 39  1  0  0  0  0
 12 40  1  0  0  0  0
 13 41  1  0  0  0  0
 13 42  1  0  0  0  0
 13 43  1  0  0  0  0
 14 44  1  0  0  0  0
 14 45  1  0  0  0  0
 14 46  1  0  0  0  0
 15 16  1  0  0  0  0
 15 47  1  0  0  0  0
 15 48  1  0  0  0  0
 16 17  1  0  0  0  0
 16 49  1  0  0  0  0
 17 18  1  0  0  0  0
 17 24  2  0  0  0  0
 18 19  2  0  0  0  0
 18 23  1  0  0  0  0
 19 20  1  0  0  0  0
 19 50  1  0  0  0  0
 20 21  2  0  0  0  0
 20 51  1  0  0  0  0
 21 22  1  0  0  0  0
 21 52  1  0  0  0  0
 22 23  2  0  0  0  0
 22 25  1  0  0  0  0
 23 53  1  0  0  0  0
M  END
>  <Mol_ID>
6334

>  <Formula>
C19H27ClFN3O2

>  <MolWeight>
383.8879832

>  <Cat>
E0777

>  <Name>
Z944

>  <Target>
Calcium Channel

>  <Form>
free base

>  <CAS>
1199236-64-0

>  <URL>
http://www.selleckchem.com/products/z944.html

$$$$
