ZAGAM (sparfloxacin).cdx
 OpenBabel08302522033D

 50 53  0  0  0  0  0  0  0  0999 V2000
   -0.9554    1.5453    1.7892 C   0  0  1  0  0  0  0  0  0  0  0  0
    0.4629    1.6437    1.3735 N   0  0  0  0  0  0  0  0  0  0  0  0
    0.5692    1.4617   -0.0968 C   0  0  2  0  0  0  0  0  0  0  0  0
   -0.0674    0.1342   -0.5851 C   0  0  0  0  0  0  0  0  0  0  0  0
   -1.4517    0.0122   -0.1121 N   0  0  0  0  0  0  0  0  0  0  0  0
   -1.6400    0.2264    1.3335 C   0  0  0  0  0  0  0  0  0  0  0  0
    2.0456    1.5339   -0.5004 C   0  0  0  0  0  0  0  0  0  0  0  0
   -1.0298    1.6608    3.3122 C   0  0  0  0  0  0  0  0  0  0  0  0
   -2.5483    0.0236   -0.9669 C   0  0  0  0  0  0  0  0  0  0  0  0
   -2.5477    0.6632   -2.2262 C   0  0  0  0  0  0  0  0  0  0  0  0
   -3.6524    0.6516   -3.1067 C   0  0  0  0  0  0  0  0  0  0  0  0
   -4.8190   -0.0135   -2.6708 C   0  0  0  0  0  0  0  0  0  0  0  0
   -4.8837   -0.6542   -1.4201 C   0  0  0  0  0  0  0  0  0  0  0  0
   -3.7347   -0.6469   -0.6185 C   0  0  0  0  0  0  0  0  0  0  0  0
   -1.4548    1.3620   -2.5785 F   0  0  0  0  0  0  0  0  0  0  0  0
   -3.7899   -1.3426    0.5344 F   0  0  0  0  0  0  0  0  0  0  0  0
   -5.9551   -1.4967   -1.0513 N   0  0  0  0  0  0  0  0  0  0  0  0
   -3.6375    1.2778   -4.4013 N   0  0  0  0  0  0  0  0  0  0  0  0
   -4.7664    1.1969   -5.2025 C   0  0  0  0  0  0  0  0  0  0  0  0
   -5.9361    0.6247   -4.8715 C   0  0  0  0  0  0  0  0  0  0  0  0
   -6.0224    0.0087   -3.5375 C   0  0  0  0  0  0  0  0  0  0  0  0
   -7.1036   -0.4513   -3.1641 O   0  0  0  0  0  0  0  0  0  0  0  0
   -2.3577    1.7522   -4.9961 C   0  0  0  0  0  0  0  0  0  0  0  0
   -1.8898    3.1711   -4.7615 C   0  0  0  0  0  0  0  0  0  0  0  0
   -2.2034    2.7129   -6.1496 C   0  0  0  0  0  0  0  0  0  0  0  0
   -7.0780    0.6422   -5.8132 C   0  0  0  0  0  0  0  0  0  0  0  0
   -8.1952    0.0259   -5.3659 O   0  0  0  0  0  0  0  0  0  0  0  0
   -7.0258    1.1692   -6.9152 O   0  0  0  0  0  0  0  0  0  0  0  0
   -1.4981    2.3959    1.3556 H   0  0  0  0  0  0  0  0  0  0  0  0
    0.9785    0.8877    1.8257 H   0  0  0  0  0  0  0  0  0  0  0  0
    0.0437    2.2956   -0.5804 H   0  0  0  0  0  0  0  0  0  0  0  0
    0.0180    0.0397   -1.6730 H   0  0  0  0  0  0  0  0  0  0  0  0
    0.4986   -0.7156   -0.1815 H   0  0  0  0  0  0  0  0  0  0  0  0
   -1.2044   -0.6275    1.8670 H   0  0  0  0  0  0  0  0  0  0  0  0
   -2.6952    0.2835    1.6229 H   0  0  0  0  0  0  0  0  0  0  0  0
    2.3259    0.7277   -1.1865 H   0  0  0  0  0  0  0  0  0  0  0  0
    2.2521    2.4864   -1.0002 H   0  0  0  0  0  0  0  0  0  0  0  0
    2.7187    1.4731    0.3627 H   0  0  0  0  0  0  0  0  0  0  0  0
   -0.5856    2.5991    3.6613 H   0  0  0  0  0  0  0  0  0  0  0  0
   -2.0717    1.6399    3.6505 H   0  0  0  0  0  0  0  0  0  0  0  0
   -0.5034    0.8333    3.8015 H   0  0  0  0  0  0  0  0  0  0  0  0
   -6.8358   -1.2651   -1.5198 H   0  0  0  0  0  0  0  0  0  0  0  0
   -6.0513   -1.6225   -0.0462 H   0  0  0  0  0  0  0  0  0  0  0  0
   -4.6582    1.6674   -6.1758 H   0  0  0  0  0  0  0  0  0  0  0  0
   -1.6015    0.9672   -4.9790 H   0  0  0  0  0  0  0  0  0  0  0  0
   -2.5726    3.8770   -4.3035 H   0  0  0  0  0  0  0  0  0  0  0  0
   -0.8505    3.3263   -4.4942 H   0  0  0  0  0  0  0  0  0  0  0  0
   -1.3648    2.5559   -6.8230 H   0  0  0  0  0  0  0  0  0  0  0  0
   -3.0657    3.1502   -6.6338 H   0  0  0  0  0  0  0  0  0  0  0  0
   -8.1219   -0.3396   -4.4550 H   0  0  0  0  0  0  0  0  0  0  0  0
  1  2  1  0  0  0  0
  1  8  1  0  0  0  0
  1 29  1  6  0  0  0
  2  3  1  0  0  0  0
  2 30  1  0  0  0  0
  3  4  1  0  0  0  0
  3 31  1  6  0  0  0
  3  7  1  0  0  0  0
  4  5  1  0  0  0  0
  4 32  1  0  0  0  0
  4 33  1  0  0  0  0
  5  6  1  0  0  0  0
  5  9  1  0  0  0  0
  6  1  1  0  0  0  0
  6 34  1  0  0  0  0
  6 35  1  0  0  0  0
  7 36  1  0  0  0  0
  7 37  1  0  0  0  0
  7 38  1  0  0  0  0
  8 39  1  0  0  0  0
  8 40  1  0  0  0  0
  8 41  1  0  0  0  0
  9 10  2  0  0  0  0
 10 11  1  0  0  0  0
 10 15  1  0  0  0  0
 11 12  2  0  0  0  0
 11 18  1  0  0  0  0
 12 13  1  0  0  0  0
 13 14  2  0  0  0  0
 13 17  1  0  0  0  0
 14  9  1  0  0  0  0
 14 16  1  0  0  0  0
 17 42  1  0  0  0  0
 17 43  1  0  0  0  0
 18 19  1  0  0  0  0
 18 23  1  0  0  0  0
 19 20  2  0  0  0  0
 19 44  1  0  0  0  0
 20 21  1  0  0  0  0
 20 26  1  0  0  0  0
 21 12  1  0  0  0  0
 21 22  2  0  0  0  0
 23 24  1  0  0  0  0
 23 45  1  0  0  0  0
 24 25  1  0  0  0  0
 24 46  1  0  0  0  0
 24 47  1  0  0  0  0
 25 23  1  0  0  0  0
 25 48  1  0  0  0  0
 25 49  1  0  0  0  0
 26 27  1  0  0  0  0
 26 28  2  0  0  0  0
 27 50  1  0  0  0  0
M  END
>  <Mol_ID>
1179

>  <Formula>
C19H22F2N4O3

>  <MolWeight>
392.3997864

>  <Cat>
S1884

>  <Name>
Sparfloxacin

>  <Synonyms>
AT-4140, CI-978, PD 131501,Zagam

>  <Target>
Antibiotics,Bacterial

>  <Form>
free base

>  <CAS>
110871-86-8

>  <URL>
http://selleckchem.com/products/sparfloxacin.html

$$$$
