Zanubrutinib (BGB-3111)
 OpenBabel08302521223D

 64 68  0  0  0  0  0  0  0  0999 V2000
   -2.0663    0.8700    0.5679 C   0  0  0  0  0  0  0  0  0  0  0  0
   -2.1193   -0.5488    0.0069 C   0  0  0  0  0  0  0  0  0  0  0  0
   -0.8132   -1.3451    0.2543 C   0  0  2  0  0  0  0  0  0  0  0  0
    0.3443   -0.4355    0.1431 N   0  0  0  0  0  0  0  0  0  0  0  0
    0.2800    0.9258    0.0068 C   0  0  0  0  0  0  0  0  0  0  0  0
   -0.9160    1.5563    0.0138 N   0  0  0  0  0  0  0  0  0  0  0  0
    1.5944   -0.8998    0.2087 N   0  0  0  0  0  0  0  0  0  0  0  0
    2.3794    0.1712   -0.0072 C   0  0  0  0  0  0  0  0  0  0  0  0
    1.5882    1.3575   -0.1633 C   0  0  0  0  0  0  0  0  0  0  0  0
   -0.6788   -2.5804   -0.7119 C   0  0  0  0  0  0  0  0  0  0  0  0
    2.0334    2.7140   -0.4169 C   0  0  0  0  0  0  0  0  0  0  0  0
    3.8375   -0.0101    0.0149 C   0  0  0  0  0  0  0  0  0  0  0  0
   -1.9917   -3.3176   -1.0647 C   0  0  0  0  0  0  0  0  0  0  0  0
   -2.5157   -4.2262    0.0476 C   0  0  0  0  0  0  0  0  0  0  0  0
   -1.4909   -5.1491    0.5254 N   0  0  0  0  0  0  0  0  0  0  0  0
   -0.2246   -4.5227    0.9014 C   0  0  0  0  0  0  0  0  0  0  0  0
    0.3237   -3.6540   -0.2249 C   0  0  0  0  0  0  0  0  0  0  0  0
   -1.9146   -6.3837    1.0152 C   0  0  0  0  0  0  0  0  0  0  0  0
   -3.0973   -6.7101    1.0898 O   0  0  0  0  0  0  0  0  0  0  0  0
   -0.8475   -7.3473    1.4078 C   0  0  0  0  0  0  0  0  0  0  0  0
   -1.0933   -8.3658    2.2424 C   0  0  0  0  0  0  0  0  0  0  0  0
    4.3904   -1.2407   -0.3772 C   0  0  0  0  0  0  0  0  0  0  0  0
    5.7666   -1.4725   -0.2949 C   0  0  0  0  0  0  0  0  0  0  0  0
    6.6210   -0.4515    0.1197 C   0  0  0  0  0  0  0  0  0  0  0  0
    6.0825    0.7647    0.5384 C   0  0  0  0  0  0  0  0  0  0  0  0
    4.7011    0.9802    0.4972 C   0  0  0  0  0  0  0  0  0  0  0  0
    7.9863   -0.5671    0.2317 O   0  0  0  0  0  0  0  0  0  0  0  0
    8.6939   -1.3618   -0.6399 C   0  0  0  0  0  0  0  0  0  0  0  0
    8.3439   -1.5926   -1.9727 C   0  0  0  0  0  0  0  0  0  0  0  0
    9.1272   -2.4325   -2.7658 C   0  0  0  0  0  0  0  0  0  0  0  0
   10.2925   -2.9958   -2.2476 C   0  0  0  0  0  0  0  0  0  0  0  0
   10.6788   -2.7162   -0.9376 C   0  0  0  0  0  0  0  0  0  0  0  0
    9.8795   -1.9013   -0.1352 C   0  0  0  0  0  0  0  0  0  0  0  0
    3.0215    3.0082   -1.0783 O   0  0  0  0  0  0  0  0  0  0  0  0
    1.3052    3.6949    0.1991 N   0  0  0  0  0  0  0  0  0  0  0  0
   -2.9775    1.4132    0.2961 H   0  0  0  0  0  0  0  0  0  0  0  0
   -2.0044    0.8576    1.6627 H   0  0  0  0  0  0  0  0  0  0  0  0
   -2.9689   -1.0798    0.4511 H   0  0  0  0  0  0  0  0  0  0  0  0
   -2.3049   -0.4710   -1.0720 H   0  0  0  0  0  0  0  0  0  0  0  0
   -0.8024   -1.6751    1.3006 H   0  0  0  0  0  0  0  0  0  0  0  0
   -1.0278    2.5294   -0.2659 H   0  0  0  0  0  0  0  0  0  0  0  0
   -0.2866   -2.1848   -1.6605 H   0  0  0  0  0  0  0  0  0  0  0  0
   -2.7782   -2.6274   -1.3831 H   0  0  0  0  0  0  0  0  0  0  0  0
   -1.7886   -3.9468   -1.9432 H   0  0  0  0  0  0  0  0  0  0  0  0
   -2.8638   -3.6386    0.9042 H   0  0  0  0  0  0  0  0  0  0  0  0
   -3.3754   -4.7884   -0.3357 H   0  0  0  0  0  0  0  0  0  0  0  0
    0.5312   -5.2607    1.1739 H   0  0  0  0  0  0  0  0  0  0  0  0
   -0.4135   -3.9297    1.8034 H   0  0  0  0  0  0  0  0  0  0  0  0
    0.5653   -4.3038   -1.0772 H   0  0  0  0  0  0  0  0  0  0  0  0
    1.2742   -3.2283    0.0974 H   0  0  0  0  0  0  0  0  0  0  0  0
    0.1277   -7.2502    0.9516 H   0  0  0  0  0  0  0  0  0  0  0  0
   -0.3101   -9.0738    2.4939 H   0  0  0  0  0  0  0  0  0  0  0  0
   -2.0744   -8.5221    2.6815 H   0  0  0  0  0  0  0  0  0  0  0  0
    3.7430   -2.0393   -0.7348 H   0  0  0  0  0  0  0  0  0  0  0  0
    6.1488   -2.4532   -0.5619 H   0  0  0  0  0  0  0  0  0  0  0  0
    6.7379    1.5499    0.9063 H   0  0  0  0  0  0  0  0  0  0  0  0
    4.3223    1.9308    0.8593 H   0  0  0  0  0  0  0  0  0  0  0  0
    7.4605   -1.1339   -2.4077 H   0  0  0  0  0  0  0  0  0  0  0  0
    8.8289   -2.6410   -3.7899 H   0  0  0  0  0  0  0  0  0  0  0  0
   10.9054   -3.6429   -2.8693 H   0  0  0  0  0  0  0  0  0  0  0  0
   11.6004   -3.1326   -0.5401 H   0  0  0  0  0  0  0  0  0  0  0  0
   10.1806   -1.6848    0.8865 H   0  0  0  0  0  0  0  0  0  0  0  0
    0.6513    3.4498    0.9295 H   0  0  0  0  0  0  0  0  0  0  0  0
    1.7024    4.6242    0.1921 H   0  0  0  0  0  0  0  0  0  0  0  0
  1  2  1  0  0  0  0
  1 36  1  0  0  0  0
  1 37  1  0  0  0  0
  2  3  1  0  0  0  0
  2 38  1  0  0  0  0
  2 39  1  0  0  0  0
  3  4  1  0  0  0  0
  3 40  1  1  0  0  0
  3 10  1  0  0  0  0
  4  5  1  0  0  0  0
  4  7  1  0  0  0  0
  5  6  1  0  0  0  0
  6  1  1  0  0  0  0
  6 41  1  0  0  0  0
  7  8  2  0  0  0  0
  8  9  1  0  0  0  0
  8 12  1  0  0  0  0
  9  5  2  0  0  0  0
  9 11  1  0  0  0  0
 10 13  1  0  0  0  0
 10 42  1  0  0  0  0
 11 34  2  0  0  0  0
 11 35  1  0  0  0  0
 12 22  2  0  0  0  0
 13 14  1  0  0  0  0
 13 43  1  0  0  0  0
 13 44  1  0  0  0  0
 14 15  1  0  0  0  0
 14 45  1  0  0  0  0
 14 46  1  0  0  0  0
 15 16  1  0  0  0  0
 15 18  1  0  0  0  0
 16 17  1  0  0  0  0
 16 47  1  0  0  0  0
 16 48  1  0  0  0  0
 17 10  1  0  0  0  0
 17 49  1  0  0  0  0
 17 50  1  0  0  0  0
 18 19  2  0  0  0  0
 18 20  1  0  0  0  0
 20 21  2  0  0  0  0
 20 51  1  0  0  0  0
 21 52  1  0  0  0  0
 21 53  1  0  0  0  0
 22 23  1  0  0  0  0
 22 54  1  0  0  0  0
 23 24  2  0  0  0  0
 23 55  1  0  0  0  0
 24 25  1  0  0  0  0
 24 27  1  0  0  0  0
 25 26  2  0  0  0  0
 25 56  1  0  0  0  0
 26 12  1  0  0  0  0
 26 57  1  0  0  0  0
 27 28  1  0  0  0  0
 28 29  2  0  0  0  0
 29 30  1  0  0  0  0
 29 58  1  0  0  0  0
 30 31  2  0  0  0  0
 30 59  1  0  0  0  0
 31 32  1  0  0  0  0
 31 60  1  0  0  0  0
 32 33  2  0  0  0  0
 32 61  1  0  0  0  0
 33 28  1  0  0  0  0
 33 62  1  0  0  0  0
 35 63  1  0  0  0  0
 35 64  1  0  0  0  0
M  END
>  <Mol_ID>
4689

>  <Formula>
C27H29N5O3

>  <MolWeight>
471.55086

>  <Cat>
S8791

>  <Name>
Zanubrutinib (BGB-3111)

>  <Synonyms>
N/A

>  <Target>
BTK

>  <Form>
Free Base

>  <CAS>
1691249-45-2

>  <URL>
http://www.selleck.cn/products/zanubrutini-bgb-3111.html

$$$$
