Zapnometinib (PD0184264)
 OpenBabel08302521323D

 27 28  0  0  0  0  0  0  0  0999 V2000
    2.7473    3.3645   -4.9388 I   0  0  0  0  0  0  0  0  0  0  0  0
    4.7818   -2.0215   -2.1476 F   0  0  0  0  0  0  0  0  0  0  0  0
    6.2442   -4.2888   -2.1076 F   0  0  0  0  0  0  0  0  0  0  0  0
    6.8952    0.8057    1.6245 O   0  0  0  0  0  0  0  0  0  0  0  0
    7.4867   -0.8563    3.0328 O   0  0  0  0  0  0  0  0  0  0  0  0
    5.0683   -0.0119   -0.1481 N   0  0  0  0  0  0  0  0  0  0  0  0
    5.8860   -1.1838   -0.2047 C   0  0  0  0  0  0  0  0  0  0  0  0
    4.5444    0.7033   -1.2567 C   0  0  0  0  0  0  0  0  0  0  0  0
    6.8026   -1.4495    0.8361 C   0  0  0  0  0  0  0  0  0  0  0  0
    5.6976   -2.1817   -1.1800 C   0  0  0  0  0  0  0  0  0  0  0  0
    7.5177   -2.6623    0.8652 C   0  0  0  0  0  0  0  0  0  0  0  0
    3.3086    1.3586   -1.1316 C   0  0  0  0  0  0  0  0  0  0  0  0
    5.2807    0.8839   -2.4351 C   0  0  0  0  0  0  0  0  0  0  0  0
    6.4286   -3.3662   -1.1538 C   0  0  0  0  0  0  0  0  0  0  0  0
    7.3374   -3.6158   -0.1359 C   0  0  0  0  0  0  0  0  0  0  0  0
    2.7897    2.1136   -2.1868 C   0  0  0  0  0  0  0  0  0  0  0  0
    4.7648    1.6382   -3.4935 C   0  0  0  0  0  0  0  0  0  0  0  0
    3.5177    2.2450   -3.3678 C   0  0  0  0  0  0  0  0  0  0  0  0
    7.0754   -0.4920    1.9437 C   0  0  0  0  0  0  0  0  0  0  0  0
    6.4986    0.9443    0.7360 H   0  0  0  0  0  0  0  0  0  0  0  0
    4.3070   -0.1948    0.5147 H   0  0  0  0  0  0  0  0  0  0  0  0
    8.2200   -2.8634    1.6745 H   0  0  0  0  0  0  0  0  0  0  0  0
    2.7286    1.2786   -0.2162 H   0  0  0  0  0  0  0  0  0  0  0  0
    6.2619    0.4316   -2.5514 H   0  0  0  0  0  0  0  0  0  0  0  0
    7.8894   -4.5511   -0.1208 H   0  0  0  0  0  0  0  0  0  0  0  0
    1.8197    2.5906   -2.0718 H   0  0  0  0  0  0  0  0  0  0  0  0
    5.3485    1.7426   -4.4046 H   0  0  0  0  0  0  0  0  0  0  0  0
  1 18  1  0  0  0  0
  2 10  1  0  0  0  0
  3 14  1  0  0  0  0
  4 19  1  0  0  0  0
  4 20  1  0  0  0  0
  5 19  2  0  0  0  0
  6  7  1  0  0  0  0
  6  8  1  0  0  0  0
  6 21  1  0  0  0  0
  7  9  2  0  0  0  0
  7 10  1  0  0  0  0
  8 12  2  0  0  0  0
  8 13  1  0  0  0  0
  9 11  1  0  0  0  0
  9 19  1  0  0  0  0
 10 14  2  0  0  0  0
 11 15  2  0  0  0  0
 11 22  1  0  0  0  0
 12 16  1  0  0  0  0
 12 23  1  0  0  0  0
 13 17  2  0  0  0  0
 13 24  1  0  0  0  0
 14 15  1  0  0  0  0
 15 25  1  0  0  0  0
 16 18  2  0  0  0  0
 16 26  1  0  0  0  0
 17 18  1  0  0  0  0
 17 27  1  0  0  0  0
M  END
>  <Mol_ID>
6269

>  <Formula>
C13H7ClF2INO2

>  <MolWeight>
409.5544564

>  <Cat>
E0404

>  <Name>
Zapnometinib (PD0184264)

>  <Synonyms>
ATR-002

>  <Target>
MEK

>  <Form>
free base

>  <CAS>
303175-44-2

>  <URL>
http://www.selleckchem.com/products/zapnometinib-pd0184264.html

$$$$
