ZD-4190
 OpenBabel08302520403D

 45 48  0  0  0  0  0  0  0  0999 V2000
   -1.0823   -1.3910   -0.1816 N   0  0  0  0  0  0  0  0  0  0  0  0
   -2.2450   -0.7322   -0.1759 C   0  0  0  0  0  0  0  0  0  0  0  0
   -2.4002    0.5841   -0.0231 N   0  0  0  0  0  0  0  0  0  0  0  0
   -1.2788    1.3058    0.1566 C   0  0  0  0  0  0  0  0  0  0  0  0
   -0.0081    0.7124    0.2243 C   0  0  0  0  0  0  0  0  0  0  0  0
    1.1939    1.4054    0.5153 C   0  0  0  0  0  0  0  0  0  0  0  0
    2.4372    0.7574    0.5442 C   0  0  0  0  0  0  0  0  0  0  0  0
    2.4655   -0.6101    0.2510 C   0  0  0  0  0  0  0  0  0  0  0  0
    1.2555   -1.2885    0.0150 C   0  0  0  0  0  0  0  0  0  0  0  0
    0.0211   -0.6634    0.0172 C   0  0  0  0  0  0  0  0  0  0  0  0
   -1.3773    2.7196    0.2211 N   0  0  0  0  0  0  0  0  0  0  0  0
    3.5215   -1.4617    0.1125 O   0  0  0  0  0  0  0  0  0  0  0  0
    4.8563   -1.1173    0.4616 C   0  0  0  0  0  0  0  0  0  0  0  0
    5.0909   -1.4124    1.9348 C   0  0  0  0  0  0  0  0  0  0  0  0
    6.4762   -1.2979    2.3164 N   0  0  0  0  0  0  0  0  0  0  0  0
    7.4010   -2.1243    1.7972 N   0  0  0  0  0  0  0  0  0  0  0  0
    8.5689   -1.8029    2.3373 N   0  0  0  0  0  0  0  0  0  0  0  0
    8.3590   -0.7809    3.2186 C   0  0  0  0  0  0  0  0  0  0  0  0
    7.0258   -0.4505    3.2290 C   0  0  0  0  0  0  0  0  0  0  0  0
    3.5935    1.4052    0.8870 O   0  0  0  0  0  0  0  0  0  0  0  0
    3.5858    2.8323    0.8375 C   0  0  0  0  0  0  0  0  0  0  0  0
   -2.5284    3.4520    0.5832 C   0  0  0  0  0  0  0  0  0  0  0  0
   -2.7798    4.7052    0.0123 C   0  0  0  0  0  0  0  0  0  0  0  0
   -3.8716    5.4803    0.3871 C   0  0  0  0  0  0  0  0  0  0  0  0
   -4.7268    5.0047    1.3786 C   0  0  0  0  0  0  0  0  0  0  0  0
   -4.4864    3.7758    1.9920 C   0  0  0  0  0  0  0  0  0  0  0  0
   -3.3873    3.0071    1.5991 C   0  0  0  0  0  0  0  0  0  0  0  0
   -1.9490    5.1697   -0.9317 F   0  0  0  0  0  0  0  0  0  0  0  0
   -6.2157    6.0341    1.9161 Br  0  0  0  0  0  0  0  0  0  0  0  0
   -3.1450   -1.3212   -0.3152 H   0  0  0  0  0  0  0  0  0  0  0  0
    1.1058    2.4600    0.7565 H   0  0  0  0  0  0  0  0  0  0  0  0
    1.2866   -2.3599   -0.1822 H   0  0  0  0  0  0  0  0  0  0  0  0
   -0.9368    3.1214   -0.6061 H   0  0  0  0  0  0  0  0  0  0  0  0
    5.4902   -1.7815   -0.1404 H   0  0  0  0  0  0  0  0  0  0  0  0
    5.1439   -0.1082    0.1567 H   0  0  0  0  0  0  0  0  0  0  0  0
    4.5005   -0.7392    2.5630 H   0  0  0  0  0  0  0  0  0  0  0  0
    4.7685   -2.4328    2.1801 H   0  0  0  0  0  0  0  0  0  0  0  0
    9.1679   -0.3512    3.7909 H   0  0  0  0  0  0  0  0  0  0  0  0
    6.4505    0.2764    3.7817 H   0  0  0  0  0  0  0  0  0  0  0  0
    3.4339    3.1816   -0.1902 H   0  0  0  0  0  0  0  0  0  0  0  0
    2.8417    3.2694    1.5134 H   0  0  0  0  0  0  0  0  0  0  0  0
    4.5605    3.1918    1.1789 H   0  0  0  0  0  0  0  0  0  0  0  0
   -4.0406    6.4393   -0.0911 H   0  0  0  0  0  0  0  0  0  0  0  0
   -5.1371    3.4040    2.7772 H   0  0  0  0  0  0  0  0  0  0  0  0
   -3.2030    2.0567    2.0954 H   0  0  0  0  0  0  0  0  0  0  0  0
  1  2  2  0  0  0  0
  1 10  1  0  0  0  0
  2  3  1  0  0  0  0
  2 30  1  0  0  0  0
  3  4  2  0  0  0  0
  4  5  1  0  0  0  0
  4 11  1  0  0  0  0
  5  6  1  0  0  0  0
  5 10  2  0  0  0  0
  6  7  2  0  0  0  0
  6 31  1  0  0  0  0
  7  8  1  0  0  0  0
  7 20  1  0  0  0  0
  8  9  2  0  0  0  0
  8 12  1  0  0  0  0
  9 10  1  0  0  0  0
  9 32  1  0  0  0  0
 11 22  1  0  0  0  0
 11 33  1  0  0  0  0
 12 13  1  0  0  0  0
 13 14  1  0  0  0  0
 13 34  1  0  0  0  0
 13 35  1  0  0  0  0
 14 15  1  0  0  0  0
 14 36  1  0  0  0  0
 14 37  1  0  0  0  0
 15 16  1  0  0  0  0
 15 19  1  0  0  0  0
 16 17  2  0  0  0  0
 17 18  1  0  0  0  0
 18 19  2  0  0  0  0
 18 38  1  0  0  0  0
 19 39  1  0  0  0  0
 20 21  1  0  0  0  0
 21 40  1  0  0  0  0
 21 41  1  0  0  0  0
 21 42  1  0  0  0  0
 22 23  2  0  0  0  0
 22 27  1  0  0  0  0
 23 24  1  0  0  0  0
 23 28  1  0  0  0  0
 24 25  2  0  0  0  0
 24 43  1  0  0  0  0
 25 26  1  0  0  0  0
 25 29  1  0  0  0  0
 26 27  2  0  0  0  0
 26 44  1  0  0  0  0
 27 45  1  0  0  0  0
M  END
>  <Mol_ID>
3828

>  <Formula>
C19H16BrFN6O2

>  <MolWeight>
459.2717432

>  <Cat>
S6543

>  <Name>
ZD-4190

>  <Synonyms>
N/A

>  <Target>
VEGFR

>  <Form>
free base

>  <CAS>
413599-62-9

>  <URL>
http://www.selleck.cn/products/zd-4190.html

$$$$
