Zeatin
 OpenBabel08302521373D

 29 30  0  0  0  0  0  0  0  0999 V2000
    0.9737    0.3258    0.3851 N   0  0  0  0  0  0  0  0  0  0  0  0
    0.2661   -0.9186    0.6307 C   0  0  0  0  0  0  0  0  0  0  0  0
   -0.6594   -0.6787    1.7930 C   0  0  0  0  0  0  0  0  0  0  0  0
   -1.9720   -0.3729    1.7254 C   0  0  0  0  0  0  0  0  0  0  0  0
   -2.8100   -0.2292    2.9668 C   0  0  0  0  0  0  0  0  0  0  0  0
   -2.6930   -0.1798    0.4178 C   0  0  0  0  0  0  0  0  0  0  0  0
   -3.2758    1.1066    3.0697 O   0  0  0  0  0  0  0  0  0  0  0  0
    2.6181    1.3758   -1.0584 C   0  0  0  0  0  0  0  0  0  0  0  0
    3.5220    1.3011   -2.1017 C   0  0  0  0  0  0  0  0  0  0  0  0
    1.8900    0.2664   -0.6664 C   0  0  0  0  0  0  0  0  0  0  0  0
    2.6539    2.6845   -0.6643 N   0  0  0  0  0  0  0  0  0  0  0  0
    4.1106    2.5165   -2.3311 N   0  0  0  0  0  0  0  0  0  0  0  0
    3.7687    0.1730   -2.7876 N   0  0  0  0  0  0  0  0  0  0  0  0
    2.1115   -0.8664   -1.3656 N   0  0  0  0  0  0  0  0  0  0  0  0
    3.5622    3.3310   -1.4579 C   0  0  0  0  0  0  0  0  0  0  0  0
    3.0229   -0.8534   -2.3631 C   0  0  0  0  0  0  0  0  0  0  0  0
    1.4142    0.7050    1.2153 H   0  0  0  0  0  0  0  0  0  0  0  0
   -0.2943   -1.2327   -0.2568 H   0  0  0  0  0  0  0  0  0  0  0  0
    0.9566   -1.7288    0.8967 H   0  0  0  0  0  0  0  0  0  0  0  0
   -0.2006   -0.8220    2.7678 H   0  0  0  0  0  0  0  0  0  0  0  0
   -3.6740   -0.8998    2.9250 H   0  0  0  0  0  0  0  0  0  0  0  0
   -2.2500   -0.4650    3.8777 H   0  0  0  0  0  0  0  0  0  0  0  0
   -2.1702    0.5453   -0.2145 H   0  0  0  0  0  0  0  0  0  0  0  0
   -2.7756   -1.1308   -0.1189 H   0  0  0  0  0  0  0  0  0  0  0  0
   -3.7093    0.1981    0.5697 H   0  0  0  0  0  0  0  0  0  0  0  0
   -2.4869    1.6716    3.1228 H   0  0  0  0  0  0  0  0  0  0  0  0
    2.0839    3.1012    0.0573 H   0  0  0  0  0  0  0  0  0  0  0  0
    3.7742    4.3877   -1.3583 H   0  0  0  0  0  0  0  0  0  0  0  0
    3.1705   -1.7957   -2.8814 H   0  0  0  0  0  0  0  0  0  0  0  0
  1  2  1  0  0  0  0
  1 10  1  0  0  0  0
  1 17  1  0  0  0  0
  2  3  1  0  0  0  0
  2 18  1  0  0  0  0
  2 19  1  0  0  0  0
  3  4  2  3  0  0  0
  3 20  1  0  0  0  0
  4  5  1  0  0  0  0
  4  6  1  0  0  0  0
  5  7  1  0  0  0  0
  5 21  1  0  0  0  0
  5 22  1  0  0  0  0
  6 23  1  0  0  0  0
  6 24  1  0  0  0  0
  6 25  1  0  0  0  0
  7 26  1  0  0  0  0
  8  9  1  0  0  0  0
  8 10  2  0  0  0  0
  8 11  1  0  0  0  0
  9 12  1  0  0  0  0
  9 13  2  0  0  0  0
 10 14  1  0  0  0  0
 11 15  1  0  0  0  0
 11 27  1  0  0  0  0
 12 15  2  0  0  0  0
 13 16  1  0  0  0  0
 14 16  2  0  0  0  0
 15 28  1  0  0  0  0
 16 29  1  0  0  0  0
M  END
>  <Mol_ID>
7397

>  <Formula>
C10H13N5O

>  <MolWeight>
219.24312

>  <Cat>
E4488

>  <Name>
Zeatin

>  <Synonyms>
Zeatin

>  <Target>
Others

>  <Form>
Free base

>  <CAS>
13114-27-7

>  <URL>
https://www.selleckchem.com/products/zeatin.html

$$$$
