Zebularine.cdx
 OpenBabel08302519553D

 28 29  0  0  0  0  0  0  0  0999 V2000
   -0.7631   -0.9348   -0.1743 C   0  0  1  0  0  0  0  0  0  0  0  0
    0.0647    1.1981   -0.1062 C   0  0  2  0  0  0  0  0  0  0  0  0
   -1.0826    0.4097    0.2662 O   0  0  0  0  0  0  0  0  0  0  0  0
    0.7332   -1.1237    0.0750 C   0  0  1  0  0  0  0  0  0  0  0  0
    1.2769    0.2993    0.2261 C   0  0  3  0  0  0  0  0  0  0  0  0
    0.0974    2.4753    0.6007 N   0  0  0  0  0  0  0  0  0  0  0  0
    1.7237    0.4421    1.5952 O   0  0  0  0  0  0  0  0  0  0  0  0
    0.9887   -1.8847    1.2616 O   0  0  0  0  0  0  0  0  0  0  0  0
   -1.6598   -1.9447    0.5365 C   0  0  0  0  0  0  0  0  0  0  0  0
   -3.0260   -1.6944    0.2046 O   0  0  0  0  0  0  0  0  0  0  0  0
    1.1098    3.3703    0.2114 C   0  0  0  0  0  0  0  0  0  0  0  0
    1.2630    4.5237    0.9319 N   0  0  0  0  0  0  0  0  0  0  0  0
    0.4288    4.7802    1.8840 C   0  0  0  0  0  0  0  0  0  0  0  0
   -0.7079    3.9410    2.2670 C   0  0  0  0  0  0  0  0  0  0  0  0
   -0.8087    2.7965    1.5919 C   0  0  0  0  0  0  0  0  0  0  0  0
    1.8535    3.0969   -0.7277 O   0  0  0  0  0  0  0  0  0  0  0  0
   -0.9706   -0.9483   -1.2516 H   0  0  0  0  0  0  0  0  0  0  0  0
    0.0029    1.3851   -1.1867 H   0  0  0  0  0  0  0  0  0  0  0  0
    1.1933   -1.6580   -0.7622 H   0  0  0  0  0  0  0  0  0  0  0  0
    2.1291    0.4971   -0.4316 H   0  0  0  0  0  0  0  0  0  0  0  0
    1.2841    1.2324    1.9597 H   0  0  0  0  0  0  0  0  0  0  0  0
    1.4005   -1.2493    1.8909 H   0  0  0  0  0  0  0  0  0  0  0  0
   -1.4172   -2.9662    0.2282 H   0  0  0  0  0  0  0  0  0  0  0  0
   -1.5728   -1.8683    1.6247 H   0  0  0  0  0  0  0  0  0  0  0  0
   -3.2002   -0.7758    0.4813 H   0  0  0  0  0  0  0  0  0  0  0  0
    0.5615    5.6974    2.4795 H   0  0  0  0  0  0  0  0  0  0  0  0
   -1.3837    4.2560    3.0493 H   0  0  0  0  0  0  0  0  0  0  0  0
   -1.6071    2.0904    1.8022 H   0  0  0  0  0  0  0  0  0  0  0  0
  1  4  1  0  0  0  0
  1 17  1  6  0  0  0
  1  9  1  0  0  0  0
  2  3  1  0  0  0  0
  2  5  1  0  0  0  0
  2  6  1  0  0  0  0
  2 18  1  6  0  0  0
  3  1  1  0  0  0  0
  4  5  1  0  0  0  0
  4  8  1  0  0  0  0
  4 19  1  6  0  0  0
  5  7  1  0  0  0  0
  5 20  1  0  0  0  0
  6 11  1  0  0  0  0
  7 21  1  0  0  0  0
  8 22  1  0  0  0  0
  9 10  1  0  0  0  0
  9 23  1  0  0  0  0
  9 24  1  0  0  0  0
 10 25  1  0  0  0  0
 11 12  1  0  0  0  0
 11 16  2  0  0  0  0
 12 13  2  0  0  0  0
 13 14  1  0  0  0  0
 13 26  1  0  0  0  0
 14 15  2  0  0  0  0
 14 27  1  0  0  0  0
 15  6  1  0  0  0  0
 15 28  1  0  0  0  0
M  END
>  <Mol_ID>
2145

>  <Formula>
C9H12N2O5

>  <MolWeight>
228.20198

>  <Cat>
S7113

>  <Name>
Zebularine (NSC 309132)

>  <Synonyms>
4-Deoxyuridine

>  <Target>
DNA Methyltransferase

>  <Form>
free base

>  <CAS>
3690-10-6

>  <URL>
http://selleckchem.com/products/zebularine.html

$$$$
