Zerumbone
 OpenBabel08302520143D

 38 38  0  0  0  0  0  0  0  0999 V2000
    3.3006    3.3380   -2.1552 C   0  0  0  0  0  0  0  0  0  0  0  0
    4.2028    3.9628   -2.9456 C   0  0  0  0  0  0  0  0  0  0  0  0
    1.4747    1.0140   -3.0442 C   0  0  0  0  0  0  0  0  0  0  0  0
    3.8563    4.8776   -4.1670 C   0  0  0  0  0  0  0  0  0  0  0  0
    1.5772    1.0634   -4.3950 C   0  0  0  0  0  0  0  0  0  0  0  0
    2.5188    4.8036   -4.9224 C   0  0  0  0  0  0  0  0  0  0  0  0
    4.7531    5.5768   -4.6323 O   0  0  0  0  0  0  0  0  0  0  0  0
    0.4599    1.7186   -5.2321 C   0  0  0  0  0  0  0  0  0  0  0  0
    2.8908    0.8721   -5.1264 C   0  0  0  0  0  0  0  0  0  0  0  0
    1.6525    3.8409   -4.5898 C   0  0  0  0  0  0  0  0  0  0  0  0
    2.2363    5.7367   -6.0760 C   0  0  0  0  0  0  0  0  0  0  0  0
    0.3302    3.2655   -5.0037 C   0  0  0  0  0  0  0  0  0  0  0  0
    2.6186    0.7866   -2.0776 C   0  0  0  0  0  0  0  0  0  0  0  0
    3.2220    2.0506   -1.2902 C   0  0  0  0  0  0  0  0  0  0  0  0
    2.2177    2.4073   -0.1703 C   0  0  0  0  0  0  0  0  0  0  0  0
    4.5137    1.5313   -0.6294 C   0  0  0  0  0  0  0  0  0  0  0  0
    2.3170    3.8152   -2.1711 H   0  0  0  0  0  0  0  0  0  0  0  0
    5.2723    3.7895   -2.8645 H   0  0  0  0  0  0  0  0  0  0  0  0
    0.5191    1.2620   -2.5829 H   0  0  0  0  0  0  0  0  0  0  0  0
    0.6591    1.5466   -6.2980 H   0  0  0  0  0  0  0  0  0  0  0  0
   -0.5018    1.2374   -5.0181 H   0  0  0  0  0  0  0  0  0  0  0  0
    3.7534    1.1228   -4.5015 H   0  0  0  0  0  0  0  0  0  0  0  0
    2.9953   -0.1582   -5.4741 H   0  0  0  0  0  0  0  0  0  0  0  0
    2.9621    1.5397   -5.9925 H   0  0  0  0  0  0  0  0  0  0  0  0
    2.0260    3.1795   -3.8677 H   0  0  0  0  0  0  0  0  0  0  0  0
    1.6257    5.2680   -6.8564 H   0  0  0  0  0  0  0  0  0  0  0  0
    1.6540    6.6084   -5.7279 H   0  0  0  0  0  0  0  0  0  0  0  0
    3.1373    6.0848   -6.5597 H   0  0  0  0  0  0  0  0  0  0  0  0
   -0.1249    3.7669   -5.8609 H   0  0  0  0  0  0  0  0  0  0  0  0
   -0.3390    3.4148   -4.1485 H   0  0  0  0  0  0  0  0  0  0  0  0
    3.4298    0.2539   -2.5899 H   0  0  0  0  0  0  0  0  0  0  0  0
    2.2530    0.0586   -1.3365 H   0  0  0  0  0  0  0  0  0  0  0  0
    2.0240    1.5520    0.4853 H   0  0  0  0  0  0  0  0  0  0  0  0
    2.6030    3.2289    0.4452 H   0  0  0  0  0  0  0  0  0  0  0  0
    1.2532    2.7287   -0.5808 H   0  0  0  0  0  0  0  0  0  0  0  0
    4.6640    1.9559    0.3667 H   0  0  0  0  0  0  0  0  0  0  0  0
    4.4554    0.4435   -0.4713 H   0  0  0  0  0  0  0  0  0  0  0  0
    5.4020    1.7195   -1.2388 H   0  0  0  0  0  0  0  0  0  0  0  0
  1  2  2  0  0  0  0
  1 14  1  0  0  0  0
  1 17  1  0  0  0  0
  2  4  1  0  0  0  0
  2 18  1  0  0  0  0
  3  5  2  0  0  0  0
  3 13  1  0  0  0  0
  3 19  1  0  0  0  0
  4  6  1  0  0  0  0
  4  7  2  0  0  0  0
  5  8  1  0  0  0  0
  5  9  1  0  0  0  0
  6 10  2  0  0  0  0
  6 11  1  0  0  0  0
  8 12  1  0  0  0  0
  8 20  1  0  0  0  0
  8 21  1  0  0  0  0
  9 22  1  0  0  0  0
  9 23  1  0  0  0  0
  9 24  1  0  0  0  0
 10 12  1  0  0  0  0
 10 25  1  0  0  0  0
 11 26  1  0  0  0  0
 11 27  1  0  0  0  0
 11 28  1  0  0  0  0
 12 29  1  0  0  0  0
 12 30  1  0  0  0  0
 13 31  1  0  0  0  0
 13 32  1  0  0  0  0
 14 13  1  0  0  0  0
 14 15  1  0  0  0  0
 14 16  1  0  0  0  0
 15 33  1  0  0  0  0
 15 34  1  0  0  0  0
 15 35  1  0  0  0  0
 16 36  1  0  0  0  0
 16 37  1  0  0  0  0
 16 38  1  0  0  0  0
M  END
>  <Mol_ID>
3189

>  <Formula>
C15H22O

>  <MolWeight>
218.33458

>  <Cat>
S5928

>  <Name>
Zerumbone

>  <Synonyms>
N/A

>  <Target>
Others

>  <Form>
Free Base

>  <CAS>
471-05-6

>  <URL>
http://www.selleckchem.com/products/zerumbone.html

$$$$
