Zidesamtinib
 OpenBabel08302521383D

 53 57  0  0  1  0  0  0  0  0999 V2000
    1.0707   -0.1749    0.9424 C   0  0  0  0  0  0  0  0  0  0  0  0
    0.1321    1.0153    1.0049 C   0  0  0  0  0  0  0  0  0  0  0  0
   -3.0756   -0.2078   -3.4908 N   0  0  0  0  0  0  0  0  0  0  0  0
   -0.4190   -7.3884   -3.7006 C   0  0  0  0  0  0  0  0  0  0  0  0
   -0.4280   -3.6039   -4.4438 C   0  0  0  0  0  0  0  0  0  0  0  0
    4.5009   -0.2729   -2.3720 F   0  0  0  0  0  0  0  0  0  0  0  0
   -0.1807   -2.3764    0.6890 C   0  0  0  0  0  0  0  0  0  0  0  0
    0.4104   -3.5865    1.0335 C   0  0  0  0  0  0  0  0  0  0  0  0
   -1.0206   -1.9717   -0.3999 C   0  0  0  0  0  0  0  0  0  0  0  0
    0.5193   -1.4368    1.4297 N   0  0  0  0  0  0  0  0  0  0  0  0
    0.4528   -4.9732    0.4322 C   0  0  0  0  0  0  0  0  0  0  0  0
    0.8622   -3.2792    2.3540 C   0  0  0  0  0  0  0  0  0  0  0  0
   -0.3883   -1.7709   -1.5938 C   0  0  0  0  0  0  0  0  0  0  0  0
   -2.3346   -1.5848   -0.3055 C   0  0  0  0  0  0  0  0  0  0  0  0
    0.9594   -1.9666    2.5829 N   0  0  0  0  0  0  0  0  0  0  0  0
    0.5077   -5.2832   -1.0562 C   0  0  0  0  0  0  0  0  0  0  0  0
   -1.0299   -1.3175   -2.7174 C   0  0  0  0  0  0  0  0  0  0  0  0
   -3.0009   -1.0273   -1.3447 N   0  0  0  0  0  0  0  0  0  0  0  0
    1.2785   -4.7973   -2.1775 C   0  0  0  0  0  0  0  0  0  0  0  0
   -0.1823   -6.3704   -1.4777 N   0  0  0  0  0  0  0  0  0  0  0  0
   -0.3169   -1.2468   -3.8855 O   0  0  0  0  0  0  0  0  0  0  0  0
   -2.3447   -0.8877   -2.5255 C   0  0  0  0  0  0  0  0  0  0  0  0
    2.1256   -3.6377   -2.3770 C   0  0  0  0  0  0  0  0  0  0  0  0
    1.1891   -5.6751   -3.1854 N   0  0  0  0  0  0  0  0  0  0  0  0
    0.2358   -6.5066   -2.7542 N   0  0  0  0  0  0  0  0  0  0  0  0
    0.5271   -2.4321   -4.1841 C   0  0  1  0  0  0  0  0  0  0  0  0
    1.8156   -2.5884   -3.3094 C   0  0  0  0  0  0  0  0  0  0  0  0
    3.2674   -3.5617   -1.5447 C   0  0  0  0  0  0  0  0  0  0  0  0
    2.6838   -1.4677   -3.2960 C   0  0  0  0  0  0  0  0  0  0  0  0
    4.0789   -2.4350   -1.5594 C   0  0  0  0  0  0  0  0  0  0  0  0
    3.7742   -1.3926   -2.4259 C   0  0  0  0  0  0  0  0  0  0  0  0
    1.9802    0.0321    1.5178 H   0  0  0  0  0  0  0  0  0  0  0  0
    1.4073   -0.3315   -0.0895 H   0  0  0  0  0  0  0  0  0  0  0  0
   -0.7730    0.8570    0.4121 H   0  0  0  0  0  0  0  0  0  0  0  0
   -0.1667    1.2259    2.0351 H   0  0  0  0  0  0  0  0  0  0  0  0
    0.6336    1.9041    0.6046 H   0  0  0  0  0  0  0  0  0  0  0  0
   -3.9975   -0.0431   -3.0954 H   0  0  0  0  0  0  0  0  0  0  0  0
   -3.1045   -0.7185   -4.3621 H   0  0  0  0  0  0  0  0  0  0  0  0
   -0.1452   -8.4131   -3.4746 H   0  0  0  0  0  0  0  0  0  0  0  0
   -1.4918   -7.2219   -3.6281 H   0  0  0  0  0  0  0  0  0  0  0  0
   -0.0842   -7.1258   -4.7162 H   0  0  0  0  0  0  0  0  0  0  0  0
   -0.8690   -3.9902   -3.5196 H   0  0  0  0  0  0  0  0  0  0  0  0
   -1.2820   -3.2782   -5.0485 H   0  0  0  0  0  0  0  0  0  0  0  0
    0.0635   -4.4131   -4.9886 H   0  0  0  0  0  0  0  0  0  0  0  0
    1.3620   -5.4473    0.8365 H   0  0  0  0  0  0  0  0  0  0  0  0
   -0.3826   -5.5353    0.8696 H   0  0  0  0  0  0  0  0  0  0  0  0
    1.1557   -3.9618    3.1416 H   0  0  0  0  0  0  0  0  0  0  0  0
    0.6734   -1.8911   -1.5670 H   0  0  0  0  0  0  0  0  0  0  0  0
   -2.8770   -1.6391    0.6336 H   0  0  0  0  0  0  0  0  0  0  0  0
    0.9308   -2.1991   -5.1797 H   0  0  0  0  0  0  0  0  0  0  0  0
    3.5155   -4.3792   -0.8746 H   0  0  0  0  0  0  0  0  0  0  0  0
    2.4692   -0.6009   -3.9181 H   0  0  0  0  0  0  0  0  0  0  0  0
    4.9298   -2.3564   -0.8896 H   0  0  0  0  0  0  0  0  0  0  0  0
  1  2  1  0  0  0  0
  1 10  1  0  0  0  0
  1 32  1  0  0  0  0
  1 33  1  0  0  0  0
  2 34  1  0  0  0  0
  2 35  1  0  0  0  0
  2 36  1  0  0  0  0
  3 22  1  0  0  0  0
  3 37  1  0  0  0  0
  3 38  1  0  0  0  0
  4 25  1  0  0  0  0
  4 39  1  0  0  0  0
  4 40  1  0  0  0  0
  4 41  1  0  0  0  0
  5 42  1  0  0  0  0
  5 43  1  0  0  0  0
  5 44  1  0  0  0  0
  6 31  1  0  0  0  0
  7  8  2  0  0  0  0
  7  9  1  0  0  0  0
  7 10  1  0  0  0  0
  8 11  1  0  0  0  0
  8 12  1  0  0  0  0
  9 13  2  0  0  0  0
  9 14  1  0  0  0  0
 10 15  1  0  0  0  0
 11 16  1  0  0  0  0
 11 45  1  0  0  0  0
 11 46  1  0  0  0  0
 12 15  2  0  0  0  0
 12 47  1  0  0  0  0
 13 17  1  0  0  0  0
 13 48  1  0  0  0  0
 14 18  2  0  0  0  0
 14 49  1  0  0  0  0
 16 19  1  0  0  0  0
 16 20  2  0  0  0  0
 17 21  1  0  0  0  0
 17 22  2  0  0  0  0
 18 22  1  0  0  0  0
 19 23  1  0  0  0  0
 19 24  2  0  0  0  0
 20 25  1  0  0  0  0
 21 26  1  0  0  0  0
 23 27  2  0  0  0  0
 23 28  1  0  0  0  0
 24 25  1  0  0  0  0
 26 27  1  0  0  0  0
 26 50  1  6  0  0  0
 26  5  1  0  0  0  0
 27 29  1  0  0  0  0
 28 30  2  0  0  0  0
 28 51  1  0  0  0  0
 29 31  2  0  0  0  0
 29 52  1  0  0  0  0
 30 31  1  0  0  0  0
 30 53  1  0  0  0  0
M  END
>  <Mol_ID>
7693

>  <Formula>
C22H22FN7O

>  <MolWeight>
419.4547832

>  <Cat>
E1409

>  <Name>
Zidesamtinib

>  <Synonyms>
NVL-520, NVL520

>  <Target>
ROS1

>  <Form>
free base

>  <CAS>
2739829-00-4

>  <URL>
https://www.selleckchem.com/products/zidesamtinib.html

$$$$
