Zimlovisertib (PF-06650833)
 OpenBabel08302521343D

 46 48  0  0  0  0  0  0  0  0999 V2000
   -2.5272    0.7732    0.0252 C   0  0  0  0  0  0  0  0  0  0  0  0
   -2.5374   -0.6267    0.1425 C   0  0  0  0  0  0  0  0  0  0  0  0
   -1.3088   -1.3127    0.2076 C   0  0  0  0  0  0  0  0  0  0  0  0
   -0.0651   -0.6389    0.1724 C   0  0  0  0  0  0  0  0  0  0  0  0
   -0.0709    0.7607    0.0352 C   0  0  0  0  0  0  0  0  0  0  0  0
   -1.2926    1.4477   -0.0291 C   0  0  0  0  0  0  0  0  0  0  0  0
    1.1969   -1.2618    0.2815 C   0  0  0  0  0  0  0  0  0  0  0  0
    2.3767   -0.6054    0.1972 N   0  0  0  0  0  0  0  0  0  0  0  0
    2.3221    0.7308    0.0404 C   0  0  0  0  0  0  0  0  0  0  0  0
    1.1432    1.4497   -0.0279 C   0  0  0  0  0  0  0  0  0  0  0  0
   -3.7402    1.6597   -0.0306 C   0  0  0  0  0  0  0  0  0  0  0  0
   -4.9760    1.0923    0.0183 N   0  0  0  0  0  0  0  0  0  0  0  0
   -3.7622   -2.6012    0.6869 C   0  0  0  0  0  0  0  0  0  0  0  0
   -3.7483   -1.2768    0.1556 O   0  0  0  0  0  0  0  0  0  0  0  0
    1.2304   -2.6273    0.5405 O   0  0  0  0  0  0  0  0  0  0  0  0
    2.5288   -3.0716    0.9808 C   0  0  0  0  0  0  0  0  0  0  0  0
    2.3961   -4.4412    1.6590 C   0  0  2  0  0  0  0  0  0  0  0  0
    3.6418   -4.9766    2.3957 C   0  0  1  0  0  0  0  0  0  0  0  0
    3.3796   -6.4932    2.4385 C   0  0  1  0  0  0  0  0  0  0  0  0
    2.4559   -6.7392    1.2563 C   0  0  0  0  0  0  0  0  0  0  0  0
    2.0478   -5.5122    0.7623 N   0  0  0  0  0  0  0  0  0  0  0  0
   -3.6372    2.8808   -0.1109 O   0  0  0  0  0  0  0  0  0  0  0  0
    5.0212   -4.5878    1.8269 C   0  0  0  0  0  0  0  0  0  0  0  0
    5.3764   -5.1172    0.4457 C   0  0  0  0  0  0  0  0  0  0  0  0
    4.5395   -7.1965    2.4082 F   0  0  0  0  0  0  0  0  0  0  0  0
    2.0699   -7.8124    0.8338 O   0  0  0  0  0  0  0  0  0  0  0  0
   -1.2771   -2.3969    0.2669 H   0  0  0  0  0  0  0  0  0  0  0  0
   -1.2864    2.5352   -0.1161 H   0  0  0  0  0  0  0  0  0  0  0  0
    3.2844    1.2316   -0.0190 H   0  0  0  0  0  0  0  0  0  0  0  0
    1.1765    2.5303   -0.1313 H   0  0  0  0  0  0  0  0  0  0  0  0
   -5.7842    1.6968   -0.0353 H   0  0  0  0  0  0  0  0  0  0  0  0
   -5.1000    0.0875    0.0453 H   0  0  0  0  0  0  0  0  0  0  0  0
   -3.1592   -3.2895    0.0862 H   0  0  0  0  0  0  0  0  0  0  0  0
   -3.4390   -2.5997    1.7333 H   0  0  0  0  0  0  0  0  0  0  0  0
   -4.7918   -2.9685    0.6499 H   0  0  0  0  0  0  0  0  0  0  0  0
    3.1945   -3.1220    0.1121 H   0  0  0  0  0  0  0  0  0  0  0  0
    2.9318   -2.3767    1.7279 H   0  0  0  0  0  0  0  0  0  0  0  0
    1.5631   -4.3895    2.3746 H   0  0  0  0  0  0  0  0  0  0  0  0
    3.6243   -4.5882    3.4220 H   0  0  0  0  0  0  0  0  0  0  0  0
    2.8425   -6.7658    3.3529 H   0  0  0  0  0  0  0  0  0  0  0  0
    1.2779   -5.4824    0.1025 H   0  0  0  0  0  0  0  0  0  0  0  0
    5.1097   -3.4949    1.8207 H   0  0  0  0  0  0  0  0  0  0  0  0
    5.7914   -4.9389    2.5272 H   0  0  0  0  0  0  0  0  0  0  0  0
    4.5961   -4.9173   -0.2910 H   0  0  0  0  0  0  0  0  0  0  0  0
    6.2956   -4.6351    0.0949 H   0  0  0  0  0  0  0  0  0  0  0  0
    5.5650   -6.1943    0.4672 H   0  0  0  0  0  0  0  0  0  0  0  0
  1  2  2  0  0  0  0
  1 11  1  0  0  0  0
  2  3  1  0  0  0  0
  3  4  2  0  0  0  0
  3 27  1  0  0  0  0
  4  5  1  0  0  0  0
  4  7  1  0  0  0  0
  5  6  2  0  0  0  0
  6  1  1  0  0  0  0
  6 28  1  0  0  0  0
  7  8  2  0  0  0  0
  7 15  1  0  0  0  0
  8  9  1  0  0  0  0
  9 10  2  0  0  0  0
  9 29  1  0  0  0  0
 10  5  1  0  0  0  0
 10 30  1  0  0  0  0
 11 12  1  0  0  0  0
 11 22  2  0  0  0  0
 12 31  1  0  0  0  0
 12 32  1  0  0  0  0
 13 14  1  0  0  0  0
 13 33  1  0  0  0  0
 13 34  1  0  0  0  0
 13 35  1  0  0  0  0
 14  2  1  0  0  0  0
 15 16  1  0  0  0  0
 16 36  1  0  0  0  0
 16 37  1  0  0  0  0
 17 18  1  0  0  0  0
 17 16  1  0  0  0  0
 17 38  1  1  0  0  0
 18 19  1  0  0  0  0
 18 23  1  0  0  0  0
 18 39  1  1  0  0  0
 19 20  1  0  0  0  0
 19 25  1  0  0  0  0
 19 40  1  1  0  0  0
 20 21  1  0  0  0  0
 20 26  2  0  0  0  0
 21 17  1  0  0  0  0
 21 41  1  0  0  0  0
 23 24  1  0  0  0  0
 23 42  1  0  0  0  0
 23 43  1  0  0  0  0
 24 44  1  0  0  0  0
 24 45  1  0  0  0  0
 24 46  1  0  0  0  0
M  END
>  <Mol_ID>
6604

>  <Formula>
C18H20FN3O4

>  <MolWeight>
361.3675032

>  <Cat>
S8531

>  <Name>
Zimlovisertib (PF-06650833)

>  <Synonyms>
N/A

>  <Target>
IRAK

>  <Form>
Free base

>  <CAS>
1817626-54-2

>  <URL>
http://www.selleckchem.com/products/pf-06650833.html

$$$$
