zipalertinib
 OpenBabel08302521233D

 50 54  0  0  0  0  0  0  0  0999 V2000
    0.8067   -0.9400    2.1672 O   0  0  0  0  0  0  0  0  0  0  0  0
    3.3887    2.7700    3.8570 N   0  0  0  0  0  0  0  0  0  0  0  0
    0.6870    1.3403    2.3423 N   0  0  0  0  0  0  0  0  0  0  0  0
    4.3447    1.8346    5.8517 N   0  0  0  0  0  0  0  0  0  0  0  0
    5.2798    3.4679    7.3453 N   0  0  0  0  0  0  0  0  0  0  0  0
    5.2545    5.7515    7.0095 N   0  0  0  0  0  0  0  0  0  0  0  0
    2.4674    8.2264    3.0085 N   0  0  0  0  0  0  0  0  0  0  0  0
    3.2355    4.0059    3.2528 C   0  0  0  0  0  0  0  0  0  0  0  0
    2.9727    1.4753    3.3172 C   0  0  0  0  0  0  0  0  0  0  0  0
    2.0994    1.5730    2.0739 C   0  0  2  0  0  0  0  0  0  0  0  0
    3.7659    4.9463    4.1800 C   0  0  0  0  0  0  0  0  0  0  0  0
    2.6287    4.0517    1.9287 C   0  0  0  0  0  0  0  0  0  0  0  0
    4.0424    2.8706    5.0515 C   0  0  0  0  0  0  0  0  0  0  0  0
    4.3025    4.2124    5.3013 C   0  0  0  0  0  0  0  0  0  0  0  0
    2.1429    2.9051    1.4065 C   0  0  0  0  0  0  0  0  0  0  0  0
    3.7025    6.4024    4.0093 C   0  0  0  0  0  0  0  0  0  0  0  0
    2.4479    5.2567    1.0246 C   0  0  0  0  0  0  0  0  0  0  0  0
    4.9425    4.4851    6.5288 C   0  0  0  0  0  0  0  0  0  0  0  0
    4.7101    7.3046    4.3699 C   0  0  0  0  0  0  0  0  0  0  0  0
    2.5522    6.9717    3.4946 C   0  0  0  0  0  0  0  0  0  0  0  0
    4.9585    2.2160    6.9746 C   0  0  0  0  0  0  0  0  0  0  0  0
    4.5691    8.6807    4.0711 C   0  0  0  0  0  0  0  0  0  0  0  0
    0.1499    0.0802    2.3228 C   0  0  0  0  0  0  0  0  0  0  0  0
    3.5139    9.0304    3.2180 C   0  0  0  0  0  0  0  0  0  0  0  0
    5.4284    9.7024    4.5281 C   0  0  0  0  0  0  0  0  0  0  0  0
    3.6125   10.2133    2.5107 C   0  0  0  0  0  0  0  0  0  0  0  0
   -1.3291    0.0814    2.4761 C   0  0  0  0  0  0  0  0  0  0  0  0
    5.4156   10.9464    3.9029 C   0  0  0  0  0  0  0  0  0  0  0  0
    4.6520   11.1037    2.7567 C   0  0  0  0  0  0  0  0  0  0  0  0
   -2.0214   -1.0628    2.4096 C   0  0  0  0  0  0  0  0  0  0  0  0
    0.1009    2.1407    2.5371 H   0  0  0  0  0  0  0  0  0  0  0  0
    5.4870    5.6811    7.9940 H   0  0  0  0  0  0  0  0  0  0  0  0
    4.5533    6.4472    6.7880 H   0  0  0  0  0  0  0  0  0  0  0  0
    3.9054    0.9471    3.0781 H   0  0  0  0  0  0  0  0  0  0  0  0
    2.4644    0.9335    4.1207 H   0  0  0  0  0  0  0  0  0  0  0  0
    2.4345    0.8087    1.3630 H   0  0  0  0  0  0  0  0  0  0  0  0
    1.6982    2.9100    0.4097 H   0  0  0  0  0  0  0  0  0  0  0  0
    1.5913    5.8504    1.3563 H   0  0  0  0  0  0  0  0  0  0  0  0
    3.3472    5.8745    0.9845 H   0  0  0  0  0  0  0  0  0  0  0  0
    2.2086    4.9766   -0.0086 H   0  0  0  0  0  0  0  0  0  0  0  0
    5.6393    6.9672    4.8281 H   0  0  0  0  0  0  0  0  0  0  0  0
    1.6397    6.3928    3.3895 H   0  0  0  0  0  0  0  0  0  0  0  0
    5.2451    1.4245    7.6585 H   0  0  0  0  0  0  0  0  0  0  0  0
    6.1213    9.5301    5.3479 H   0  0  0  0  0  0  0  0  0  0  0  0
    2.8994   10.4099    1.7151 H   0  0  0  0  0  0  0  0  0  0  0  0
   -1.8411    1.0250    2.6155 H   0  0  0  0  0  0  0  0  0  0  0  0
    6.0440   11.7603    4.2540 H   0  0  0  0  0  0  0  0  0  0  0  0
    4.8643   11.9031    2.0542 H   0  0  0  0  0  0  0  0  0  0  0  0
   -3.1024   -1.0719    2.5028 H   0  0  0  0  0  0  0  0  0  0  0  0
   -1.5242   -2.0166    2.2553 H   0  0  0  0  0  0  0  0  0  0  0  0
  1 23  2  0  0  0  0
  2  8  1  0  0  0  0
  2  9  1  0  0  0  0
  2 13  1  0  0  0  0
  3 23  1  0  0  0  0
  3 31  1  0  0  0  0
  4 13  2  0  0  0  0
  4 21  1  0  0  0  0
  5 18  1  0  0  0  0
  5 21  2  0  0  0  0
  6 18  1  0  0  0  0
  6 32  1  0  0  0  0
  6 33  1  0  0  0  0
  7 20  2  0  0  0  0
  7 24  1  0  0  0  0
  8 11  2  0  0  0  0
  8 12  1  0  0  0  0
  9 10  1  0  0  0  0
  9 34  1  0  0  0  0
  9 35  1  0  0  0  0
 10 15  1  0  0  0  0
 10 36  1  6  0  0  0
 10  3  1  0  0  0  0
 11 14  1  0  0  0  0
 11 16  1  0  0  0  0
 12 15  2  0  0  0  0
 12 17  1  0  0  0  0
 13 14  1  0  0  0  0
 14 18  2  0  0  0  0
 15 37  1  0  0  0  0
 16 19  2  0  0  0  0
 16 20  1  0  0  0  0
 17 38  1  0  0  0  0
 17 39  1  0  0  0  0
 17 40  1  0  0  0  0
 19 22  1  0  0  0  0
 19 41  1  0  0  0  0
 20 42  1  0  0  0  0
 21 43  1  0  0  0  0
 22 24  2  0  0  0  0
 22 25  1  0  0  0  0
 23 27  1  0  0  0  0
 24 26  1  0  0  0  0
 25 28  2  0  0  0  0
 25 44  1  0  0  0  0
 26 29  2  0  0  0  0
 26 45  1  0  0  0  0
 27 30  2  0  0  0  0
 27 46  1  0  0  0  0
 28 29  1  0  0  0  0
 28 47  1  0  0  0  0
 29 48  1  0  0  0  0
 30 49  1  0  0  0  0
 30 50  1  0  0  0  0
M  END
>  <Mol_ID>
4803

>  <Formula>
C23H20N6O

>  <MolWeight>
396.4445

>  <Cat>
S8814

>  <Name>
zipalertinib

>  <Synonyms>
CLN-081, TPC-064,TAS6417

>  <Target>
EGFR

>  <Form>
Free Base

>  <CAS>
1661854-97-2

>  <URL>
http://www.selleck.cn/products/tas6417.html

$$$$
