Ziprasidone hydrochloride.cdx
 OpenBabel08302519593D

 49 53  0  0  0  0  0  0  0  0999 V2000
    0.4258   -0.0275   -1.2343 C   0  0  0  0  0  0  0  0  0  0  0  0
   -0.0432    1.1515   -1.8367 C   0  0  0  0  0  0  0  0  0  0  0  0
    0.2981    2.3918   -1.3326 C   0  0  0  0  0  0  0  0  0  0  0  0
    1.0424    2.4852   -0.1661 C   0  0  0  0  0  0  0  0  0  0  0  0
    1.4844    1.2993    0.4547 C   0  0  0  0  0  0  0  0  0  0  0  0
    1.2669    0.0240   -0.0877 C   0  0  0  0  0  0  0  0  0  0  0  0
    2.3275    1.1210    1.9278 S   0  0  0  0  0  0  0  0  0  0  0  0
    2.5206   -0.5004    1.8304 N   0  0  0  0  0  0  0  0  0  0  0  0
    2.0527   -0.9704    0.6702 C   0  0  0  0  0  0  0  0  0  0  0  0
    2.3540   -2.2638    0.2683 N   0  0  0  0  0  0  0  0  0  0  0  0
    3.2405   -3.0477    1.1600 C   0  0  0  0  0  0  0  0  0  0  0  0
    3.9691   -4.2416    0.5108 C   0  0  0  0  0  0  0  0  0  0  0  0
    3.2021   -5.0148   -0.4826 N   0  0  0  0  0  0  0  0  0  0  0  0
    2.7989   -4.0624   -1.5234 C   0  0  0  0  0  0  0  0  0  0  0  0
    2.1196   -2.7326   -1.1013 C   0  0  0  0  0  0  0  0  0  0  0  0
    2.1122   -5.7608    0.1651 C   0  0  0  0  0  0  0  0  0  0  0  0
    1.1224   -6.5647   -0.7043 C   0  0  0  0  0  0  0  0  0  0  0  0
    1.5325   -7.6918   -1.6312 C   0  0  0  0  0  0  0  0  0  0  0  0
    2.8436   -7.8950   -2.1166 C   0  0  0  0  0  0  0  0  0  0  0  0
    3.0949   -8.7540   -3.1915 C   0  0  0  0  0  0  0  0  0  0  0  0
    2.0152   -9.3854   -3.7683 C   0  0  0  0  0  0  0  0  0  0  0  0
    0.7294   -9.2700   -3.2602 C   0  0  0  0  0  0  0  0  0  0  0  0
    0.4798   -8.4630   -2.1692 C   0  0  0  0  0  0  0  0  0  0  0  0
    1.9719  -10.0691   -4.9768 N   0  0  0  0  0  0  0  0  0  0  0  0
    0.6552  -10.3602   -5.3389 C   0  0  0  0  0  0  0  0  0  0  0  0
   -0.2387   -9.9869   -4.1558 C   0  0  0  0  0  0  0  0  0  0  0  0
    0.2903  -10.7975   -6.4191 O   0  0  0  0  0  0  0  0  0  0  0  0
    0.1143   -0.9781   -1.6531 H   0  0  0  0  0  0  0  0  0  0  0  0
   -0.6714    1.0800   -2.7206 H   0  0  0  0  0  0  0  0  0  0  0  0
   -0.0343    3.2964   -1.8367 H   0  0  0  0  0  0  0  0  0  0  0  0
    1.2882    3.4575    0.2627 H   0  0  0  0  0  0  0  0  0  0  0  0
    4.0315   -2.4037    1.5679 H   0  0  0  0  0  0  0  0  0  0  0  0
    2.6442   -3.4034    2.0094 H   0  0  0  0  0  0  0  0  0  0  0  0
    4.8739   -3.8617    0.0165 H   0  0  0  0  0  0  0  0  0  0  0  0
    4.3417   -4.9056    1.3012 H   0  0  0  0  0  0  0  0  0  0  0  0
    3.7152   -3.7921   -2.0658 H   0  0  0  0  0  0  0  0  0  0  0  0
    2.1867   -4.5516   -2.2907 H   0  0  0  0  0  0  0  0  0  0  0  0
    1.0428   -2.8605   -1.2501 H   0  0  0  0  0  0  0  0  0  0  0  0
    2.4760   -1.9676   -1.8029 H   0  0  0  0  0  0  0  0  0  0  0  0
    2.5624   -6.4625    0.8794 H   0  0  0  0  0  0  0  0  0  0  0  0
    1.4949   -5.0716    0.7560 H   0  0  0  0  0  0  0  0  0  0  0  0
    0.3884   -6.9875   -0.0037 H   0  0  0  0  0  0  0  0  0  0  0  0
    0.5666   -5.8510   -1.3260 H   0  0  0  0  0  0  0  0  0  0  0  0
    3.6767   -7.3244   -1.7044 H   0  0  0  0  0  0  0  0  0  0  0  0
    4.0975   -8.8659   -3.5949 H   0  0  0  0  0  0  0  0  0  0  0  0
   -0.5376   -8.3429   -1.8039 H   0  0  0  0  0  0  0  0  0  0  0  0
    2.7451  -10.1987   -5.6084 H   0  0  0  0  0  0  0  0  0  0  0  0
   -0.6287  -10.8955   -3.6926 H   0  0  0  0  0  0  0  0  0  0  0  0
   -1.0368   -9.3148   -4.4827 H   0  0  0  0  0  0  0  0  0  0  0  0
  1  2  2  0  0  0  0
  1 28  1  0  0  0  0
  2  3  1  0  0  0  0
  2 29  1  0  0  0  0
  3  4  2  0  0  0  0
  3 30  1  0  0  0  0
  4  5  1  0  0  0  0
  4 31  1  0  0  0  0
  5  6  2  0  0  0  0
  5  7  1  0  0  0  0
  6  1  1  0  0  0  0
  7  8  1  0  0  0  0
  8  9  2  0  0  0  0
  9  6  1  0  0  0  0
  9 10  1  0  0  0  0
 10 11  1  0  0  0  0
 11 12  1  0  0  0  0
 11 32  1  0  0  0  0
 11 33  1  0  0  0  0
 12 13  1  0  0  0  0
 12 34  1  0  0  0  0
 12 35  1  0  0  0  0
 13 14  1  0  0  0  0
 13 16  1  0  0  0  0
 14 15  1  0  0  0  0
 14 36  1  0  0  0  0
 14 37  1  0  0  0  0
 15 10  1  0  0  0  0
 15 38  1  0  0  0  0
 15 39  1  0  0  0  0
 16 17  1  0  0  0  0
 16 40  1  0  0  0  0
 16 41  1  0  0  0  0
 17 18  1  0  0  0  0
 17 42  1  0  0  0  0
 17 43  1  0  0  0  0
 18 19  2  0  0  0  0
 19 20  1  0  0  0  0
 19 44  1  0  0  0  0
 20 21  2  0  0  0  0
 20 45  1  0  0  0  0
 21 22  1  0  0  0  0
 21 24  1  0  0  0  0
 22 23  2  0  0  0  0
 23 18  1  0  0  0  0
 23 46  1  0  0  0  0
 24 25  1  0  0  0  0
 24 47  1  0  0  0  0
 25 26  1  0  0  0  0
 25 27  2  0  0  0  0
 26 22  1  0  0  0  0
 26 48  1  0  0  0  0
 26 49  1  0  0  0  0
M  END
>  <Mol_ID>
261

>  <Formula>
C21H22Cl2N4OS

>  <MolWeight>
449.39658

>  <Cat>
S1444

>  <Name>
Ziprasidone HCl

>  <Synonyms>
CP-88059

>  <Target>
5-HT Receptor,Dopamine Receptor

>  <Form>
Hydrochloride

>  <CAS>
122883-93-6

>  <URL>
http://selleckchem.com/products/Ziprasidone-hydrochloride.html

$$$$
