ZK756326.cdx
 OpenBabel08302520433D

 54 56  0  0  0  0  0  0  0  0999 V2000
   -3.7141    0.2890    4.0631 C   0  0  0  0  0  0  0  0  0  0  0  0
   -4.4335   -0.8132    4.5190 C   0  0  0  0  0  0  0  0  0  0  0  0
   -4.3743   -2.0221    3.8253 C   0  0  0  0  0  0  0  0  0  0  0  0
   -3.6041   -2.1218    2.6706 C   0  0  0  0  0  0  0  0  0  0  0  0
   -2.8767   -1.0158    2.2122 C   0  0  0  0  0  0  0  0  0  0  0  0
   -2.9409    0.1910    2.9087 C   0  0  0  0  0  0  0  0  0  0  0  0
   -3.4975   -3.3604    2.0676 O   0  0  0  0  0  0  0  0  0  0  0  0
   -3.7889   -3.4563    0.7317 C   0  0  0  0  0  0  0  0  0  0  0  0
   -3.0509   -4.3669   -0.0206 C   0  0  0  0  0  0  0  0  0  0  0  0
   -3.3264   -4.5442   -1.3818 C   0  0  0  0  0  0  0  0  0  0  0  0
   -4.3860   -3.8550   -1.9879 C   0  0  0  0  0  0  0  0  0  0  0  0
   -5.1795   -2.9884   -1.2187 C   0  0  0  0  0  0  0  0  0  0  0  0
   -4.8492   -2.7797    0.1296 C   0  0  0  0  0  0  0  0  0  0  0  0
   -6.4176   -2.3203   -1.7809 C   0  0  0  0  0  0  0  0  0  0  0  0
   -6.3966   -0.9037   -1.4253 N   0  0  0  0  0  0  0  0  0  0  0  0
   -5.6228   -0.1321   -2.3995 C   0  0  0  0  0  0  0  0  0  0  0  0
   -5.4266    1.2720   -1.8440 C   0  0  0  0  0  0  0  0  0  0  0  0
   -6.7502    1.9180   -1.8407 N   0  0  0  0  0  0  0  0  0  0  0  0
   -7.5755    1.2583   -0.8138 C   0  0  0  0  0  0  0  0  0  0  0  0
   -7.7019   -0.2767   -1.1417 C   0  0  0  0  0  0  0  0  0  0  0  0
   -6.6047    3.3692   -1.8424 C   0  0  0  0  0  0  0  0  0  0  0  0
   -7.8804    4.2237   -1.7869 C   0  0  0  0  0  0  0  0  0  0  0  0
   -8.3577    4.5231   -0.4750 O   0  0  0  0  0  0  0  0  0  0  0  0
   -7.4464    5.1971    0.3953 C   0  0  0  0  0  0  0  0  0  0  0  0
   -6.8025    6.4789   -0.1445 C   0  0  0  0  0  0  0  0  0  0  0  0
   -7.7651    7.4831   -0.4557 O   0  0  0  0  0  0  0  0  0  0  0  0
   -3.7484    1.2306    4.6138 H   0  0  0  0  0  0  0  0  0  0  0  0
   -5.0360   -0.7345    5.4265 H   0  0  0  0  0  0  0  0  0  0  0  0
   -4.9259   -2.8856    4.1892 H   0  0  0  0  0  0  0  0  0  0  0  0
   -2.2636   -1.0992    1.3221 H   0  0  0  0  0  0  0  0  0  0  0  0
   -2.3733    1.0463    2.5554 H   0  0  0  0  0  0  0  0  0  0  0  0
   -2.2629   -4.9426    0.4509 H   0  0  0  0  0  0  0  0  0  0  0  0
   -2.7269   -5.2396   -1.9685 H   0  0  0  0  0  0  0  0  0  0  0  0
   -4.5921   -4.0131   -3.0385 H   0  0  0  0  0  0  0  0  0  0  0  0
   -5.4476   -2.0766    0.7145 H   0  0  0  0  0  0  0  0  0  0  0  0
   -6.5050   -2.4683   -2.8682 H   0  0  0  0  0  0  0  0  0  0  0  0
   -7.2794   -2.8300   -1.3242 H   0  0  0  0  0  0  0  0  0  0  0  0
   -4.6377   -0.5808   -2.5701 H   0  0  0  0  0  0  0  0  0  0  0  0
   -6.1366   -0.0903   -3.3705 H   0  0  0  0  0  0  0  0  0  0  0  0
   -4.9743    1.2484   -0.8408 H   0  0  0  0  0  0  0  0  0  0  0  0
   -4.7217    1.8066   -2.4944 H   0  0  0  0  0  0  0  0  0  0  0  0
   -7.1396    1.3808    0.1848 H   0  0  0  0  0  0  0  0  0  0  0  0
   -8.5850    1.6822   -0.7849 H   0  0  0  0  0  0  0  0  0  0  0  0
   -8.3734   -0.3991   -2.0030 H   0  0  0  0  0  0  0  0  0  0  0  0
   -8.1688   -0.7763   -0.2836 H   0  0  0  0  0  0  0  0  0  0  0  0
   -5.8730    3.6943   -1.0944 H   0  0  0  0  0  0  0  0  0  0  0  0
   -6.1587    3.5989   -2.8219 H   0  0  0  0  0  0  0  0  0  0  0  0
   -7.7138    5.1634   -2.3231 H   0  0  0  0  0  0  0  0  0  0  0  0
   -8.6914    3.7206   -2.3293 H   0  0  0  0  0  0  0  0  0  0  0  0
   -8.0297    5.4494    1.2881 H   0  0  0  0  0  0  0  0  0  0  0  0
   -6.6743    4.4922    0.7178 H   0  0  0  0  0  0  0  0  0  0  0  0
   -6.1172    6.8948    0.6019 H   0  0  0  0  0  0  0  0  0  0  0  0
   -6.2237    6.2897   -1.0529 H   0  0  0  0  0  0  0  0  0  0  0  0
   -8.2121    7.7287    0.3709 H   0  0  0  0  0  0  0  0  0  0  0  0
  1  2  2  0  0  0  0
  1 27  1  0  0  0  0
  2  3  1  0  0  0  0
  2 28  1  0  0  0  0
  3  4  2  0  0  0  0
  3 29  1  0  0  0  0
  4  5  1  0  0  0  0
  4  7  1  0  0  0  0
  5  6  2  0  0  0  0
  5 30  1  0  0  0  0
  6  1  1  0  0  0  0
  6 31  1  0  0  0  0
  7  8  1  0  0  0  0
  8  9  2  0  0  0  0
  9 10  1  0  0  0  0
  9 32  1  0  0  0  0
 10 11  2  0  0  0  0
 10 33  1  0  0  0  0
 11 12  1  0  0  0  0
 11 34  1  0  0  0  0
 12 13  2  0  0  0  0
 12 14  1  0  0  0  0
 13  8  1  0  0  0  0
 13 35  1  0  0  0  0
 14 15  1  0  0  0  0
 14 36  1  0  0  0  0
 14 37  1  0  0  0  0
 15 16  1  0  0  0  0
 16 17  1  0  0  0  0
 16 38  1  0  0  0  0
 16 39  1  0  0  0  0
 17 18  1  0  0  0  0
 17 40  1  0  0  0  0
 17 41  1  0  0  0  0
 18 19  1  0  0  0  0
 18 21  1  0  0  0  0
 19 20  1  0  0  0  0
 19 42  1  0  0  0  0
 19 43  1  0  0  0  0
 20 15  1  0  0  0  0
 20 44  1  0  0  0  0
 20 45  1  0  0  0  0
 21 22  1  0  0  0  0
 21 46  1  0  0  0  0
 21 47  1  0  0  0  0
 22 23  1  0  0  0  0
 22 48  1  0  0  0  0
 22 49  1  0  0  0  0
 23 24  1  0  0  0  0
 24 25  1  0  0  0  0
 24 50  1  0  0  0  0
 24 51  1  0  0  0  0
 25 26  1  0  0  0  0
 25 52  1  0  0  0  0
 25 53  1  0  0  0  0
 26 54  1  0  0  0  0
M  END
>  <Mol_ID>
4067

>  <Formula>
C21H30Cl2N2O3

>  <MolWeight>
429.3805

>  <Cat>
S8324

>  <Name>
ZK756326 2HCl

>  <Synonyms>
N/A

>  <Target>
CCR

>  <Form>
Dihydrochloride

>  <CAS>
874911-96-3

>  <URL>
http://selleckchem.com/products/zk756326.html

$$$$
