ZLc002
 OpenBabel08302521353D

 33 32  0  0  0  0  0  0  0  0999 V2000
    0.9227   -0.0957   -0.0356 C   0  0  2  0  0  0  0  0  0  0  0  0
    0.3651    1.2541    0.1238 N   0  0  0  0  0  0  0  0  0  0  0  0
    0.4921   -0.6643   -1.4005 C   0  0  0  0  0  0  0  0  0  0  0  0
    0.6056   -1.0199    1.1642 C   0  0  0  0  0  0  0  0  0  0  0  0
    0.9079    2.1625    1.0122 C   0  0  0  0  0  0  0  0  0  0  0  0
    1.4315   -1.5417   -1.8589 O   0  0  0  0  0  0  0  0  0  0  0  0
   -0.5339   -0.3501   -1.9937 O   0  0  0  0  0  0  0  0  0  0  0  0
   -0.8820   -1.1047    1.5183 C   0  0  0  0  0  0  0  0  0  0  0  0
    1.1690   -2.4351    0.9909 C   0  0  0  0  0  0  0  0  0  0  0  0
    0.2483    3.5166    1.0411 C   0  0  0  0  0  0  0  0  0  0  0  0
    1.8892    1.9102    1.7017 O   0  0  0  0  0  0  0  0  0  0  0  0
    1.1958   -2.0970   -3.1542 C   0  0  0  0  0  0  0  0  0  0  0  0
   -0.8328    3.6338    2.0684 C   0  0  0  0  0  0  0  0  0  0  0  0
   -0.9455    4.9298    2.4823 O   0  0  0  0  0  0  0  0  0  0  0  0
   -1.5704    2.7240    2.4201 O   0  0  0  0  0  0  0  0  0  0  0  0
   -2.0018    5.1670    3.4156 C   0  0  0  0  0  0  0  0  0  0  0  0
    2.0112    0.0407   -0.0906 H   0  0  0  0  0  0  0  0  0  0  0  0
   -0.5329    1.4396   -0.3092 H   0  0  0  0  0  0  0  0  0  0  0  0
    1.1092   -0.5877    2.0390 H   0  0  0  0  0  0  0  0  0  0  0  0
   -1.4375   -1.7111    0.7966 H   0  0  0  0  0  0  0  0  0  0  0  0
   -1.0010   -1.5681    2.5053 H   0  0  0  0  0  0  0  0  0  0  0  0
   -1.3486   -0.1172    1.5707 H   0  0  0  0  0  0  0  0  0  0  0  0
    2.2206   -2.4087    0.6905 H   0  0  0  0  0  0  0  0  0  0  0  0
    1.1058   -2.9908    1.9330 H   0  0  0  0  0  0  0  0  0  0  0  0
    0.6089   -3.0038    0.2404 H   0  0  0  0  0  0  0  0  0  0  0  0
    1.0371    4.2478    1.2566 H   0  0  0  0  0  0  0  0  0  0  0  0
   -0.1690    3.7607    0.0582 H   0  0  0  0  0  0  0  0  0  0  0  0
    0.4560   -2.9002   -3.0883 H   0  0  0  0  0  0  0  0  0  0  0  0
    0.8806   -1.3325   -3.8704 H   0  0  0  0  0  0  0  0  0  0  0  0
    2.1395   -2.5251   -3.5070 H   0  0  0  0  0  0  0  0  0  0  0  0
   -2.9686    4.8944    2.9796 H   0  0  0  0  0  0  0  0  0  0  0  0
   -1.8254    4.6160    4.3445 H   0  0  0  0  0  0  0  0  0  0  0  0
   -2.0189    6.2363    3.6453 H   0  0  0  0  0  0  0  0  0  0  0  0
  1  2  1  0  0  0  0
  1  3  1  0  0  0  0
  1  4  1  0  0  0  0
  1 17  1  6  0  0  0
  2  5  1  0  0  0  0
  2 18  1  0  0  0  0
  3  6  1  0  0  0  0
  3  7  2  0  0  0  0
  4  8  1  0  0  0  0
  4  9  1  0  0  0  0
  4 19  1  0  0  0  0
  5 10  1  0  0  0  0
  5 11  2  0  0  0  0
  6 12  1  0  0  0  0
  8 20  1  0  0  0  0
  8 21  1  0  0  0  0
  8 22  1  0  0  0  0
  9 23  1  0  0  0  0
  9 24  1  0  0  0  0
  9 25  1  0  0  0  0
 10 13  1  0  0  0  0
 10 26  1  0  0  0  0
 10 27  1  0  0  0  0
 12 28  1  0  0  0  0
 12 29  1  0  0  0  0
 12 30  1  0  0  0  0
 13 14  1  0  0  0  0
 13 15  2  0  0  0  0
 14 16  1  0  0  0  0
 16 31  1  0  0  0  0
 16 32  1  0  0  0  0
 16 33  1  0  0  0  0
M  END
>  <Mol_ID>
6807

>  <Formula>
C10H17NO5

>  <MolWeight>
231.24568

>  <Cat>
E0496

>  <Name>
ZLc002

>  <Synonyms>
N/A

>  <Target>
NOS

>  <Form>
Free base

>  <CAS>
308277-46-5

>  <URL>
http://www.selleckchem.com/products/zlc002.html

$$$$
