ZM306416.cdx
 OpenBabel08302522003D

 36 38  0  0  0  0  0  0  0  0999 V2000
    0.0509    0.7255   -0.0808 C   0  0  0  0  0  0  0  0  0  0  0  0
    0.0439   -0.6616   -0.0109 C   0  0  0  0  0  0  0  0  0  0  0  0
   -1.2239    1.3384   -0.1034 C   0  0  0  0  0  0  0  0  0  0  0  0
    1.3077    1.3828   -0.0994 C   0  0  0  0  0  0  0  0  0  0  0  0
    1.2685   -1.3109    0.0386 C   0  0  0  0  0  0  0  0  0  0  0  0
   -1.0781   -1.3877    0.0210 N   0  0  0  0  0  0  0  0  0  0  0  0
   -1.3370    2.7551   -0.2197 N   0  0  0  0  0  0  0  0  0  0  0  0
   -2.3588    0.6119   -0.1155 N   0  0  0  0  0  0  0  0  0  0  0  0
    2.5574    0.7152   -0.0416 C   0  0  0  0  0  0  0  0  0  0  0  0
    2.5359   -0.6756    0.0234 C   0  0  0  0  0  0  0  0  0  0  0  0
   -2.2300   -0.7130   -0.0333 C   0  0  0  0  0  0  0  0  0  0  0  0
   -2.4780    3.4834    0.2266 C   0  0  0  0  0  0  0  0  0  0  0  0
    3.5122    1.6781   -0.0566 O   0  0  0  0  0  0  0  0  0  0  0  0
    3.4691   -1.6575    0.0950 O   0  0  0  0  0  0  0  0  0  0  0  0
   -3.1395    3.2024    1.4349 C   0  0  0  0  0  0  0  0  0  0  0  0
   -2.8426    4.6443   -0.4671 C   0  0  0  0  0  0  0  0  0  0  0  0
    4.8595   -1.4951   -0.0028 C   0  0  0  0  0  0  0  0  0  0  0  0
   -4.1927    3.9913    1.8848 C   0  0  0  0  0  0  0  0  0  0  0  0
   -2.7287    2.1937    2.2209 F   0  0  0  0  0  0  0  0  0  0  0  0
   -3.8970    5.4447   -0.0138 C   0  0  0  0  0  0  0  0  0  0  0  0
   -4.5812    5.1102    1.1545 C   0  0  0  0  0  0  0  0  0  0  0  0
    4.8988    1.4781    0.0193 C   0  0  0  0  0  0  0  0  0  0  0  0
    1.3345    2.4705   -0.1554 H   0  0  0  0  0  0  0  0  0  0  0  0
    1.2403   -2.4047    0.0911 H   0  0  0  0  0  0  0  0  0  0  0  0
   -0.5410    3.1807    0.2483 H   0  0  0  0  0  0  0  0  0  0  0  0
   -3.1439   -1.2946   -0.0077 H   0  0  0  0  0  0  0  0  0  0  0  0
   -2.3131    4.9207   -1.3762 H   0  0  0  0  0  0  0  0  0  0  0  0
    5.1468   -1.0173   -0.9380 H   0  0  0  0  0  0  0  0  0  0  0  0
    5.2559   -1.0126    0.8896 H   0  0  0  0  0  0  0  0  0  0  0  0
    5.3034   -2.4962   -0.0223 H   0  0  0  0  0  0  0  0  0  0  0  0
   -4.6914    3.7344    2.8152 H   0  0  0  0  0  0  0  0  0  0  0  0
   -4.1819    6.3314   -0.5741 H   0  0  0  0  0  0  0  0  0  0  0  0
   -5.4047    5.7288    1.5029 H   0  0  0  0  0  0  0  0  0  0  0  0
    5.1845    0.9905    0.9508 H   0  0  0  0  0  0  0  0  0  0  0  0
    5.2734    0.9889   -0.8790 H   0  0  0  0  0  0  0  0  0  0  0  0
    5.3684    2.4675    0.0391 H   0  0  0  0  0  0  0  0  0  0  0  0
  1  2  1  0  0  0  0
  1  3  1  0  0  0  0
  1  4  2  0  0  0  0
  2  5  2  0  0  0  0
  2  6  1  0  0  0  0
  3  7  1  0  0  0  0
  3  8  2  0  0  0  0
  4  9  1  0  0  0  0
  4 23  1  0  0  0  0
  5 10  1  0  0  0  0
  5 24  1  0  0  0  0
  6 11  2  0  0  0  0
  7 12  1  0  0  0  0
  7 25  1  0  0  0  0
  8 11  1  0  0  0  0
  9 13  1  0  0  0  0
  9 10  2  0  0  0  0
 10 14  1  0  0  0  0
 11 26  1  0  0  0  0
 12 15  2  0  0  0  0
 12 16  1  0  0  0  0
 13 22  1  0  0  0  0
 14 17  1  0  0  0  0
 15 18  1  0  0  0  0
 15 19  1  0  0  0  0
 16 20  2  0  0  0  0
 16 27  1  0  0  0  0
 17 28  1  0  0  0  0
 17 29  1  0  0  0  0
 17 30  1  0  0  0  0
 18 21  2  0  0  0  0
 18 31  1  0  0  0  0
 20 21  1  0  0  0  0
 20 32  1  0  0  0  0
 21 33  1  0  0  0  0
 22 34  1  0  0  0  0
 22 35  1  0  0  0  0
 22 36  1  0  0  0  0
M  END
>  <Mol_ID>
1072

>  <Formula>
C16H13ClFN3O2

>  <MolWeight>
333.7447232

>  <Cat>
S2897

>  <Name>
ZM 306416

>  <Synonyms>
CB 676475

>  <Target>
VEGFR

>  <Form>
free base

>  <CAS>
690206-97-4

>  <URL>
http://selleckchem.com/products/zm-306416.html

$$$$
