ZM336372.cdx
 OpenBabel08302521433D

 52 54  0  0  0  0  0  0  0  0999 V2000
    1.3148   -0.3142   -0.0553 C   0  0  0  0  0  0  0  0  0  0  0  0
    0.3494   -1.2496   -0.4861 C   0  0  0  0  0  0  0  0  0  0  0  0
   -1.0064   -0.9346   -0.6184 C   0  0  0  0  0  0  0  0  0  0  0  0
   -1.4495    0.3368   -0.2959 C   0  0  0  0  0  0  0  0  0  0  0  0
   -0.5357    1.2969    0.1478 C   0  0  0  0  0  0  0  0  0  0  0  0
    0.8330    0.9781    0.2354 C   0  0  0  0  0  0  0  0  0  0  0  0
    2.6560   -0.6727    0.0596 N   0  0  0  0  0  0  0  0  0  0  0  0
    3.7055    0.2403    0.4989 C   0  0  0  0  0  0  0  0  0  0  0  0
    3.0161   -2.0919    0.1360 C   0  0  0  0  0  0  0  0  0  0  0  0
   -1.0939    2.5861    0.6322 C   0  0  0  0  0  0  0  0  0  0  0  0
   -0.3168    3.7183    0.4561 N   0  0  0  0  0  0  0  0  0  0  0  0
   -2.2283    2.5569    1.1059 O   0  0  0  0  0  0  0  0  0  0  0  0
   -0.6789    5.0301    0.8530 C   0  0  0  0  0  0  0  0  0  0  0  0
   -1.6723    5.3021    1.7981 C   0  0  0  0  0  0  0  0  0  0  0  0
   -2.0822    6.6136    2.1135 C   0  0  0  0  0  0  0  0  0  0  0  0
   -1.4700    7.6811    1.4311 C   0  0  0  0  0  0  0  0  0  0  0  0
   -0.4036    7.4069    0.5496 C   0  0  0  0  0  0  0  0  0  0  0  0
   -0.0069    6.0975    0.2703 C   0  0  0  0  0  0  0  0  0  0  0  0
   -1.9086    9.1181    1.5188 C   0  0  0  0  0  0  0  0  0  0  0  0
   -3.0696    6.8483    3.1152 N   0  0  0  0  0  0  0  0  0  0  0  0
   -3.9672    5.8923    3.5827 C   0  0  0  0  0  0  0  0  0  0  0  0
   -4.8504    6.2590    4.7124 C   0  0  0  0  0  0  0  0  0  0  0  0
   -4.1254    4.7619    3.1332 O   0  0  0  0  0  0  0  0  0  0  0  0
   -6.1240    5.6525    4.7616 C   0  0  0  0  0  0  0  0  0  0  0  0
   -6.9342    5.7863    5.8907 C   0  0  0  0  0  0  0  0  0  0  0  0
   -6.4664    6.5234    6.9683 C   0  0  0  0  0  0  0  0  0  0  0  0
   -5.2208    7.1497    6.9283 C   0  0  0  0  0  0  0  0  0  0  0  0
   -4.4069    7.0189    5.7975 C   0  0  0  0  0  0  0  0  0  0  0  0
   -7.1935    6.6303    8.1185 O   0  0  0  0  0  0  0  0  0  0  0  0
    0.6316   -2.2698   -0.7306 H   0  0  0  0  0  0  0  0  0  0  0  0
   -1.7148   -1.6896   -0.9475 H   0  0  0  0  0  0  0  0  0  0  0  0
   -2.5091    0.5761   -0.3624 H   0  0  0  0  0  0  0  0  0  0  0  0
    1.5039    1.7454    0.5996 H   0  0  0  0  0  0  0  0  0  0  0  0
    4.0072    0.0084    1.5263 H   0  0  0  0  0  0  0  0  0  0  0  0
    4.5819    0.1139   -0.1476 H   0  0  0  0  0  0  0  0  0  0  0  0
    3.4468    1.2989    0.4480 H   0  0  0  0  0  0  0  0  0  0  0  0
    2.4588   -2.6002    0.9317 H   0  0  0  0  0  0  0  0  0  0  0  0
    2.8381   -2.5957   -0.8196 H   0  0  0  0  0  0  0  0  0  0  0  0
    4.0817   -2.2200    0.3624 H   0  0  0  0  0  0  0  0  0  0  0  0
    0.4741    3.6361   -0.1670 H   0  0  0  0  0  0  0  0  0  0  0  0
   -2.1186    4.4650    2.3217 H   0  0  0  0  0  0  0  0  0  0  0  0
    0.0989    8.2227    0.0327 H   0  0  0  0  0  0  0  0  0  0  0  0
    0.7915    5.9333   -0.4472 H   0  0  0  0  0  0  0  0  0  0  0  0
   -1.3015    9.6721    2.2394 H   0  0  0  0  0  0  0  0  0  0  0  0
   -1.7948    9.5969    0.5361 H   0  0  0  0  0  0  0  0  0  0  0  0
   -2.9679    9.2111    1.7724 H   0  0  0  0  0  0  0  0  0  0  0  0
   -3.1773    7.7947    3.4530 H   0  0  0  0  0  0  0  0  0  0  0  0
   -6.4620    5.0364    3.9290 H   0  0  0  0  0  0  0  0  0  0  0  0
   -7.8931    5.2793    5.9150 H   0  0  0  0  0  0  0  0  0  0  0  0
   -4.8683    7.6990    7.7955 H   0  0  0  0  0  0  0  0  0  0  0  0
   -3.4117    7.4518    5.8086 H   0  0  0  0  0  0  0  0  0  0  0  0
   -7.9990    6.0943    8.0242 H   0  0  0  0  0  0  0  0  0  0  0  0
  1  2  2  0  0  0  0
  1  7  1  0  0  0  0
  2  3  1  0  0  0  0
  2 30  1  0  0  0  0
  3  4  2  0  0  0  0
  3 31  1  0  0  0  0
  4  5  1  0  0  0  0
  4 32  1  0  0  0  0
  5  6  2  0  0  0  0
  5 10  1  0  0  0  0
  6  1  1  0  0  0  0
  6 33  1  0  0  0  0
  7  8  1  0  0  0  0
  7  9  1  0  0  0  0
  8 34  1  0  0  0  0
  8 35  1  0  0  0  0
  8 36  1  0  0  0  0
  9 37  1  0  0  0  0
  9 38  1  0  0  0  0
  9 39  1  0  0  0  0
 10 11  1  0  0  0  0
 10 12  2  0  0  0  0
 11 13  1  0  0  0  0
 11 40  1  0  0  0  0
 13 14  2  0  0  0  0
 14 15  1  0  0  0  0
 14 41  1  0  0  0  0
 15 16  2  0  0  0  0
 15 20  1  0  0  0  0
 16 17  1  0  0  0  0
 16 19  1  0  0  0  0
 17 18  2  0  0  0  0
 17 42  1  0  0  0  0
 18 13  1  0  0  0  0
 18 43  1  0  0  0  0
 19 44  1  0  0  0  0
 19 45  1  0  0  0  0
 19 46  1  0  0  0  0
 20 21  1  0  0  0  0
 20 47  1  0  0  0  0
 21 22  1  0  0  0  0
 21 23  2  0  0  0  0
 22 24  2  0  0  0  0
 24 25  1  0  0  0  0
 24 48  1  0  0  0  0
 25 26  2  0  0  0  0
 25 49  1  0  0  0  0
 26 27  1  0  0  0  0
 26 29  1  0  0  0  0
 27 28  2  0  0  0  0
 27 50  1  0  0  0  0
 28 22  1  0  0  0  0
 28 51  1  0  0  0  0
 29 52  1  0  0  0  0
M  END
>  <Mol_ID>
874

>  <Formula>
C23H23N3O3

>  <MolWeight>
389.44702

>  <Cat>
S2720

>  <Name>
ZM 336372

>  <Synonyms>
Zinc00581684

>  <Target>
Raf

>  <Form>
free base

>  <CAS>
208260-29-1

>  <URL>
http://selleckchem.com/products/zm-336372.html

$$$$
