ZOCOR (simvastatin).cdx
 OpenBabel08302521213D

 68 70  0  0  0  0  0  0  0  0999 V2000
   -2.2616   -1.1096   -0.5351 C   0  0  0  0  0  0  0  0  0  0  0  0
   -2.5985    0.3448   -0.8825 C   0  0  2  0  0  0  0  0  0  0  0  0
   -1.3884    1.2550   -0.8427 C   0  0  0  0  0  0  0  0  0  0  0  0
   -0.1374    0.8754   -0.4962 C   0  0  0  0  0  0  0  0  0  0  0  0
    0.1925   -0.5632   -0.1329 C   0  0  2  0  0  0  0  0  0  0  0  0
   -1.0809   -1.2517    0.4346 C   0  0  1  0  0  0  0  0  0  0  0  0
    0.8996    1.8717   -0.3132 C   0  0  0  0  0  0  0  0  0  0  0  0
    2.1361    1.5786    0.1077 C   0  0  0  0  0  0  0  0  0  0  0  0
    2.6173    0.1868    0.3961 C   0  0  1  0  0  0  0  0  0  0  0  0
    1.4503   -0.7734    0.7730 C   0  0  2  0  0  0  0  0  0  0  0  0
   -3.7617    0.8324   -0.0035 C   0  0  0  0  0  0  0  0  0  0  0  0
   -1.4574   -0.9719    1.8233 O   0  0  0  0  0  0  0  0  0  0  0  0
   -1.5646    0.2515    2.4177 C   0  0  0  0  0  0  0  0  0  0  0  0
   -1.2719    1.3332    1.9324 O   0  0  0  0  0  0  0  0  0  0  0  0
   -2.0366    0.1316    3.8650 C   0  0  0  0  0  0  0  0  0  0  0  0
   -2.4923    1.5141    4.4302 C   0  0  0  0  0  0  0  0  0  0  0  0
   -3.7288    2.1512    3.7949 C   0  0  0  0  0  0  0  0  0  0  0  0
   -3.1594   -0.9012    4.0101 C   0  0  0  0  0  0  0  0  0  0  0  0
   -0.7915   -0.3111    4.6526 C   0  0  0  0  0  0  0  0  0  0  0  0
    3.4913   -0.2452   -0.7901 C   0  0  0  0  0  0  0  0  0  0  0  0
    1.8896   -2.2695    0.8007 C   0  0  0  0  0  0  0  0  0  0  0  0
    2.9823   -2.5629    1.8410 C   0  0  0  0  0  0  0  0  0  0  0  0
    3.4324   -4.0352    1.8571 C   0  0  1  0  0  0  0  0  0  0  0  0
    3.9842   -4.3457    0.5568 O   0  0  0  0  0  0  0  0  0  0  0  0
    5.1874   -4.9055    0.3159 C   0  0  0  0  0  0  0  0  0  0  0  0
    6.0230   -5.3467    1.4814 C   0  0  0  0  0  0  0  0  0  0  0  0
    5.2398   -5.5062    2.7656 C   0  0  1  0  0  0  0  0  0  0  0  0
    4.3998   -4.2728    3.0087 C   0  0  0  0  0  0  0  0  0  0  0  0
    5.5981   -5.0246   -0.8342 O   0  0  0  0  0  0  0  0  0  0  0  0
    4.4380   -6.6828    2.7623 O   0  0  0  0  0  0  0  0  0  0  0  0
   -3.1405   -1.6322   -0.1419 H   0  0  0  0  0  0  0  0  0  0  0  0
   -1.9918   -1.6200   -1.4713 H   0  0  0  0  0  0  0  0  0  0  0  0
   -2.9712    0.3694   -1.9147 H   0  0  0  0  0  0  0  0  0  0  0  0
   -1.5945    2.3066   -1.0349 H   0  0  0  0  0  0  0  0  0  0  0  0
    0.4253   -1.0497   -1.0941 H   0  0  0  0  0  0  0  0  0  0  0  0
   -0.8778   -2.3291    0.4526 H   0  0  0  0  0  0  0  0  0  0  0  0
    0.6372    2.9124   -0.4816 H   0  0  0  0  0  0  0  0  0  0  0  0
    2.8466    2.3893    0.2477 H   0  0  0  0  0  0  0  0  0  0  0  0
    3.2741    0.2524    1.2758 H   0  0  0  0  0  0  0  0  0  0  0  0
    1.1559   -0.5110    1.7991 H   0  0  0  0  0  0  0  0  0  0  0  0
   -3.8657    1.9205   -0.0127 H   0  0  0  0  0  0  0  0  0  0  0  0
   -4.7032    0.4024   -0.3646 H   0  0  0  0  0  0  0  0  0  0  0  0
   -3.6710    0.5099    1.0366 H   0  0  0  0  0  0  0  0  0  0  0  0
   -2.6915    1.4052    5.5031 H   0  0  0  0  0  0  0  0  0  0  0  0
   -1.6707    2.2378    4.3452 H   0  0  0  0  0  0  0  0  0  0  0  0
   -4.5982    1.4893    3.8152 H   0  0  0  0  0  0  0  0  0  0  0  0
   -4.0006    3.0553    4.3534 H   0  0  0  0  0  0  0  0  0  0  0  0
   -3.5446    2.4563    2.7610 H   0  0  0  0  0  0  0  0  0  0  0  0
   -2.8427   -1.8974    3.6820 H   0  0  0  0  0  0  0  0  0  0  0  0
   -3.4800   -0.9881    5.0541 H   0  0  0  0  0  0  0  0  0  0  0  0
   -4.0349   -0.6377    3.4062 H   0  0  0  0  0  0  0  0  0  0  0  0
   -0.4198   -1.2781    4.2949 H   0  0  0  0  0  0  0  0  0  0  0  0
    0.0245    0.4127    4.5207 H   0  0  0  0  0  0  0  0  0  0  0  0
   -1.0024   -0.3969    5.7200 H   0  0  0  0  0  0  0  0  0  0  0  0
    4.2775    0.4981   -0.9757 H   0  0  0  0  0  0  0  0  0  0  0  0
    4.0014   -1.1933   -0.6043 H   0  0  0  0  0  0  0  0  0  0  0  0
    2.9051   -0.3431   -1.7095 H   0  0  0  0  0  0  0  0  0  0  0  0
    1.0355   -2.9098    1.0433 H   0  0  0  0  0  0  0  0  0  0  0  0
    2.2180   -2.5781   -0.1990 H   0  0  0  0  0  0  0  0  0  0  0  0
    3.8605   -1.9443    1.6269 H   0  0  0  0  0  0  0  0  0  0  0  0
    2.6120   -2.2811    2.8333 H   0  0  0  0  0  0  0  0  0  0  0  0
    2.5551   -4.6823    1.9825 H   0  0  0  0  0  0  0  0  0  0  0  0
    6.8074   -4.5921    1.6143 H   0  0  0  0  0  0  0  0  0  0  0  0
    6.4910   -6.3012    1.2150 H   0  0  0  0  0  0  0  0  0  0  0  0
    5.9451   -5.6252    3.5947 H   0  0  0  0  0  0  0  0  0  0  0  0
    3.8339   -4.3644    3.9436 H   0  0  0  0  0  0  0  0  0  0  0  0
    5.0718   -3.4116    3.1215 H   0  0  0  0  0  0  0  0  0  0  0  0
    3.9393   -6.7458    1.9291 H   0  0  0  0  0  0  0  0  0  0  0  0
  1  2  1  0  0  0  0
  1 31  1  0  0  0  0
  1 32  1  0  0  0  0
  2  3  1  0  0  0  0
  2 11  1  0  0  0  0
  2 33  1  6  0  0  0
  3  4  2  0  0  0  0
  3 34  1  0  0  0  0
  4  7  1  0  0  0  0
  5  4  1  0  0  0  0
  5  6  1  0  0  0  0
  5 35  1  6  0  0  0
  6  1  1  0  0  0  0
  6 12  1  0  0  0  0
  6 36  1  6  0  0  0
  7  8  2  0  0  0  0
  7 37  1  0  0  0  0
  8  9  1  0  0  0  0
  8 38  1  0  0  0  0
  9 10  1  0  0  0  0
  9 20  1  0  0  0  0
  9 39  1  1  0  0  0
 10  5  1  0  0  0  0
 10 40  1  1  0  0  0
 10 21  1  0  0  0  0
 11 41  1  0  0  0  0
 11 42  1  0  0  0  0
 11 43  1  0  0  0  0
 12 13  1  0  0  0  0
 13 14  2  0  0  0  0
 13 15  1  0  0  0  0
 15 16  1  0  0  0  0
 15 18  1  0  0  0  0
 15 19  1  0  0  0  0
 16 17  1  0  0  0  0
 16 44  1  0  0  0  0
 16 45  1  0  0  0  0
 17 46  1  0  0  0  0
 17 47  1  0  0  0  0
 17 48  1  0  0  0  0
 18 49  1  0  0  0  0
 18 50  1  0  0  0  0
 18 51  1  0  0  0  0
 19 52  1  0  0  0  0
 19 53  1  0  0  0  0
 19 54  1  0  0  0  0
 20 55  1  0  0  0  0
 20 56  1  0  0  0  0
 20 57  1  0  0  0  0
 21 22  1  0  0  0  0
 21 58  1  0  0  0  0
 21 59  1  0  0  0  0
 22 60  1  0  0  0  0
 22 61  1  0  0  0  0
 23 22  1  0  0  0  0
 23 24  1  0  0  0  0
 23 62  1  1  0  0  0
 24 25  1  0  0  0  0
 25 26  1  0  0  0  0
 25 29  2  0  0  0  0
 26 27  1  0  0  0  0
 26 63  1  0  0  0  0
 26 64  1  0  0  0  0
 27 28  1  0  0  0  0
 27 30  1  0  0  0  0
 27 65  1  1  0  0  0
 28 23  1  0  0  0  0
 28 66  1  0  0  0  0
 28 67  1  0  0  0  0
 30 68  1  0  0  0  0
M  END
>  <Mol_ID>
442

>  <Formula>
C25H38O5

>  <MolWeight>
418.56622

>  <Cat>
S1792

>  <Name>
Simvastatin (MK 733)

>  <Synonyms>
MK-0733, MK 733

>  <Target>
Apoptosis related,Autophagy,Ferroptosis,HMG-CoA Reductase,Mitophagy

>  <Form>
free base

>  <CAS>
79902-63-9

>  <URL>
http://selleckchem.com/products/Simvastatin(Zocor).html

$$$$
