Zonisamide.cdx
 OpenBabel08302519593D

 22 23  0  0  0  0  0  0  0  0999 V2000
   -0.1369   -0.7997    0.0126 C   0  0  0  0  0  0  0  0  0  0  0  0
    1.1162   -1.4349    0.0177 C   0  0  0  0  0  0  0  0  0  0  0  0
    2.2678   -0.6343    0.0059 C   0  0  0  0  0  0  0  0  0  0  0  0
    2.1787    0.7613   -0.0083 C   0  0  0  0  0  0  0  0  0  0  0  0
    0.9380    1.4079   -0.0091 C   0  0  0  0  0  0  0  0  0  0  0  0
   -0.1830    0.5831    0.0025 C   0  0  0  0  0  0  0  0  0  0  0  0
   -1.4804    0.9888    0.0050 O   0  0  0  0  0  0  0  0  0  0  0  0
   -2.3139   -0.1185    0.0155 N   0  0  0  0  0  0  0  0  0  0  0  0
   -1.5018   -1.1869    0.0154 C   0  0  0  0  0  0  0  0  0  0  0  0
   -2.0669   -2.5559    0.0085 C   0  0  0  0  0  0  0  0  0  0  0  0
   -2.3524   -3.1712    1.6708 S   0  0  0  0  0  0  0  0  0  0  0  0
   -3.4557   -2.0905    2.3218 N   0  0  0  0  0  0  0  0  0  0  0  0
   -3.0359   -4.4411    1.5886 O   0  0  0  0  0  0  0  0  0  0  0  0
   -1.1471   -3.0291    2.4579 O   0  0  0  0  0  0  0  0  0  0  0  0
    1.2028   -2.5174    0.0380 H   0  0  0  0  0  0  0  0  0  0  0  0
    3.2474   -1.1093    0.0086 H   0  0  0  0  0  0  0  0  0  0  0  0
    3.0910    1.3556   -0.0159 H   0  0  0  0  0  0  0  0  0  0  0  0
    0.8497    2.4879   -0.0167 H   0  0  0  0  0  0  0  0  0  0  0  0
   -3.0163   -2.6099   -0.5328 H   0  0  0  0  0  0  0  0  0  0  0  0
   -1.3710   -3.2606   -0.4598 H   0  0  0  0  0  0  0  0  0  0  0  0
   -3.7806   -2.4267    3.2308 H   0  0  0  0  0  0  0  0  0  0  0  0
   -3.0770   -1.1411    2.3838 H   0  0  0  0  0  0  0  0  0  0  0  0
  1  2  2  0  0  0  0
  2  3  1  0  0  0  0
  2 15  1  0  0  0  0
  3  4  2  0  0  0  0
  3 16  1  0  0  0  0
  4  5  1  0  0  0  0
  4 17  1  0  0  0  0
  5  6  2  0  0  0  0
  5 18  1  0  0  0  0
  6  1  1  0  0  0  0
  6  7  1  0  0  0  0
  7  8  1  0  0  0  0
  8  9  2  0  0  0  0
  9  1  1  0  0  0  0
  9 10  1  0  0  0  0
 10 11  1  0  0  0  0
 10 19  1  0  0  0  0
 10 20  1  0  0  0  0
 11 12  1  0  0  0  0
 11 13  2  0  0  0  0
 11 14  2  0  0  0  0
 12 21  1  0  0  0  0
 12 22  1  0  0  0  0
M  END
>  <Mol_ID>
262

>  <Formula>
C8H8N2O3S

>  <MolWeight>
212.22572

>  <Cat>
S1445

>  <Name>
Zonisamide

>  <Synonyms>
Zonegran,CI-912,AD 810

>  <Target>
Sodium Channel

>  <Form>
free base

>  <CAS>
68291-97-4

>  <URL>
http://selleckchem.com/products/Zonisamide.html

$$$$
