Zotiraciclib
 OpenBabel08302521323D

 52 55  0  0  0  0  0  0  0  0999 V2000
   -0.0152   -2.0309    0.4829 C   0  0  0  0  0  0  0  0  0  0  0  0
    5.0386   -3.4296   -0.5407 C   0  0  0  0  0  0  0  0  0  0  0  0
    5.1013   -2.4087   -1.6544 C   0  0  0  0  0  0  0  0  0  0  0  0
    5.2516   -4.7779   -0.8187 N   0  0  0  0  0  0  0  0  0  0  0  0
    4.5740   -3.1014    0.6800 C   0  0  0  0  0  0  0  0  0  0  0  0
    4.5161   -2.5602   -2.9292 C   0  0  0  0  0  0  0  0  0  0  0  0
    5.6494   -1.1434   -1.3553 C   0  0  0  0  0  0  0  0  0  0  0  0
    4.6758   -5.7409   -0.0021 C   0  0  0  0  0  0  0  0  0  0  0  0
    4.4734   -4.2401    1.6405 C   0  0  0  0  0  0  0  0  0  0  0  0
    4.3331   -1.4553   -3.8088 C   0  0  0  0  0  0  0  0  0  0  0  0
    5.5528   -0.0817   -2.2776 C   0  0  0  0  0  0  0  0  0  0  0  0
    3.9847   -6.7788   -0.4132 N   0  0  0  0  0  0  0  0  0  0  0  0
    4.5990   -5.5009    1.3572 N   0  0  0  0  0  0  0  0  0  0  0  0
    4.8692   -0.2354   -3.4888 C   0  0  0  0  0  0  0  0  0  0  0  0
    3.6075   -1.7220   -4.9530 O   0  0  0  0  0  0  0  0  0  0  0  0
    3.0187   -6.4784   -1.4099 C   0  0  0  0  0  0  0  0  0  0  0  0
    2.5741   -0.7848   -5.3620 C   0  0  0  0  0  0  0  0  0  0  0  0
    2.4273   -5.2221   -1.3340 C   0  0  0  0  0  0  0  0  0  0  0  0
    2.5057   -7.3163   -2.3851 C   0  0  0  0  0  0  0  0  0  0  0  0
    1.2047   -1.1141   -4.7480 C   0  0  0  0  0  0  0  0  0  0  0  0
    1.1420   -4.9568   -1.7477 C   0  0  0  0  0  0  0  0  0  0  0  0
    1.4750   -6.8294   -3.2191 C   0  0  0  0  0  0  0  0  0  0  0  0
    1.2457   -0.8018   -3.2881 C   0  0  0  0  0  0  0  0  0  0  0  0
    0.7654   -5.6535   -2.8875 C   0  0  0  0  0  0  0  0  0  0  0  0
    0.2900   -4.0915   -0.8328 C   0  0  0  0  0  0  0  0  0  0  0  0
    0.9018   -1.7901   -2.4525 C   0  0  0  0  0  0  0  0  0  0  0  0
    0.9227   -2.8746   -0.2465 N   0  0  0  0  0  0  0  0  0  0  0  0
    1.6274   -2.0407   -1.1954 C   0  0  0  0  0  0  0  0  0  0  0  0
   -0.5282   -2.5812    1.2739 H   0  0  0  0  0  0  0  0  0  0  0  0
   -0.7596   -1.5806   -0.1839 H   0  0  0  0  0  0  0  0  0  0  0  0
    0.5244   -1.2081    0.9751 H   0  0  0  0  0  0  0  0  0  0  0  0
    5.2671   -5.0179   -1.8010 H   0  0  0  0  0  0  0  0  0  0  0  0
    4.2538   -2.1146    1.0027 H   0  0  0  0  0  0  0  0  0  0  0  0
    4.1065   -3.4879   -3.2421 H   0  0  0  0  0  0  0  0  0  0  0  0
    6.1545   -0.9641   -0.4114 H   0  0  0  0  0  0  0  0  0  0  0  0
    4.2720   -3.9405    2.6888 H   0  0  0  0  0  0  0  0  0  0  0  0
    6.0028    0.8859   -2.0285 H   0  0  0  0  0  0  0  0  0  0  0  0
    4.8007    0.6085   -4.1712 H   0  0  0  0  0  0  0  0  0  0  0  0
    2.4637   -0.8996   -6.4442 H   0  0  0  0  0  0  0  0  0  0  0  0
    2.8439    0.2596   -5.1773 H   0  0  0  0  0  0  0  0  0  0  0  0
    3.0815   -4.5754   -1.9413 H   0  0  0  0  0  0  0  0  0  0  0  0
    2.8952   -8.3216   -2.5082 H   0  0  0  0  0  0  0  0  0  0  0  0
    1.0107   -2.1871   -4.9012 H   0  0  0  0  0  0  0  0  0  0  0  0
    0.3843   -0.5615   -5.2211 H   0  0  0  0  0  0  0  0  0  0  0  0
    1.1633   -7.4137   -4.0829 H   0  0  0  0  0  0  0  0  0  0  0  0
    1.8795    0.0237   -2.9472 H   0  0  0  0  0  0  0  0  0  0  0  0
   -0.0868   -5.3414   -3.4806 H   0  0  0  0  0  0  0  0  0  0  0  0
    0.0336   -4.7496    0.0076 H   0  0  0  0  0  0  0  0  0  0  0  0
   -0.6390   -3.8361   -1.3425 H   0  0  0  0  0  0  0  0  0  0  0  0
    0.3105   -2.5949   -2.8686 H   0  0  0  0  0  0  0  0  0  0  0  0
    2.0360   -1.1348   -0.7350 H   0  0  0  0  0  0  0  0  0  0  0  0
    2.5177   -2.5961   -1.4764 H   0  0  0  0  0  0  0  0  0  0  0  0
  1 27  1  0  0  0  0
  1 29  1  0  0  0  0
  1 30  1  0  0  0  0
  1 31  1  0  0  0  0
  2  3  1  0  0  0  0
  2  4  1  0  0  0  0
  2  5  2  0  0  0  0
  3  6  1  0  0  0  0
  3  7  2  0  0  0  0
  4  8  1  0  0  0  0
  4 32  1  0  0  0  0
  5  9  1  0  0  0  0
  5 33  1  0  0  0  0
  6 10  2  0  0  0  0
  6 34  1  0  0  0  0
  7 11  1  0  0  0  0
  7 35  1  0  0  0  0
  8 12  2  0  0  0  0
  8 13  1  0  0  0  0
  9 13  2  0  0  0  0
  9 36  1  0  0  0  0
 10 14  1  0  0  0  0
 10 15  1  0  0  0  0
 11 14  2  0  0  0  0
 11 37  1  0  0  0  0
 12 16  1  0  0  0  0
 14 38  1  0  0  0  0
 15 17  1  0  0  0  0
 16 18  2  0  0  0  0
 16 19  1  0  0  0  0
 17 20  1  0  0  0  0
 17 39  1  0  0  0  0
 17 40  1  0  0  0  0
 18 21  1  0  0  0  0
 18 41  1  0  0  0  0
 19 22  2  0  0  0  0
 19 42  1  0  0  0  0
 20 23  1  0  0  0  0
 20 43  1  0  0  0  0
 20 44  1  0  0  0  0
 21 24  2  0  0  0  0
 21 25  1  0  0  0  0
 22 24  1  0  0  0  0
 22 45  1  0  0  0  0
 23 26  2  0  0  0  0
 23 46  1  0  0  0  0
 24 47  1  0  0  0  0
 25 27  1  0  0  0  0
 25 48  1  0  0  0  0
 25 49  1  0  0  0  0
 26 28  1  0  0  0  0
 26 50  1  0  0  0  0
 27 28  1  0  0  0  0
 28 51  1  0  0  0  0
 28 52  1  0  0  0  0
M  END
>  <Mol_ID>
6244

>  <Formula>
C23H24N4O

>  <MolWeight>
372.46286

>  <Cat>
S7002

>  <Name>
Zotiraciclib

>  <Synonyms>
SB1317 (TG02)

>  <Target>
FLT3,JAK

>  <Form>
free base

>  <CAS>
937270-47-8

>  <URL>
http://www.selleckchem.com/products/sb1317-tg02.html

$$$$
