ZT-12-037-01
 OpenBabel08302521223D

 59 62  0  0  0  0  0  0  0  0999 V2000
   -1.7263   -0.7811   -0.3281 C   0  0  0  0  0  0  0  0  0  0  0  0
   -1.9680    0.5393   -0.5021 N   0  0  0  0  0  0  0  0  0  0  0  0
   -0.9010    1.3639   -0.5610 C   0  0  0  0  0  0  0  0  0  0  0  0
    0.4242    0.8412   -0.3922 C   0  0  0  0  0  0  0  0  0  0  0  0
    0.5261   -0.5528   -0.3213 C   0  0  0  0  0  0  0  0  0  0  0  0
   -0.5216   -1.3458   -0.3189 N   0  0  0  0  0  0  0  0  0  0  0  0
    1.6335    1.5663   -0.2263 C   0  0  0  0  0  0  0  0  0  0  0  0
    2.8559    0.9151    0.0564 C   0  0  0  0  0  0  0  0  0  0  0  0
    2.9145   -0.4807    0.0988 C   0  0  0  0  0  0  0  0  0  0  0  0
    1.7419   -1.1925   -0.1319 C   0  0  0  0  0  0  0  0  0  0  0  0
   -2.7116   -1.7264   -0.0525 N   0  0  0  0  0  0  0  0  0  0  0  0
   -4.0917   -1.5314   -0.4243 C   0  0  0  0  0  0  0  0  0  0  0  0
    3.9152   -1.2052    0.6911 O   0  0  0  0  0  0  0  0  0  0  0  0
    5.0884   -1.4345   -0.0773 C   0  0  0  0  0  0  0  0  0  0  0  0
    3.8346    1.7600    0.5013 O   0  0  0  0  0  0  0  0  0  0  0  0
    5.0737    1.6662   -0.1812 C   0  0  0  0  0  0  0  0  0  0  0  0
   -1.0583    2.7799   -0.7222 N   0  0  0  0  0  0  0  0  0  0  0  0
   -2.3836    3.4018   -0.9829 C   0  0  0  0  0  0  0  0  0  0  0  0
   -3.0330    3.0691   -2.3323 C   0  0  0  0  0  0  0  0  0  0  0  0
   -2.5152    3.8430   -3.5569 C   0  0  0  0  0  0  0  0  0  0  0  0
   -2.1569    5.2623   -3.4172 N   0  0  0  0  0  0  0  0  0  0  0  0
   -1.5622    5.6007   -2.1271 C   0  0  0  0  0  0  0  0  0  0  0  0
   -2.2878    4.9490   -0.9275 C   0  0  0  0  0  0  0  0  0  0  0  0
   -1.5214    5.8319   -4.6521 C   0  0  0  0  0  0  0  0  0  0  0  0
   -0.8523    7.2180   -4.5492 C   0  0  0  0  0  0  0  0  0  0  0  0
   -0.5436    4.8996   -5.3926 C   0  0  0  0  0  0  0  0  0  0  0  0
   -5.0369   -0.8075    0.4706 C   0  0  0  0  0  0  0  0  0  0  0  0
   -5.1562   -2.2973    0.3147 C   0  0  0  0  0  0  0  0  0  0  0  0
    1.6043    2.6485   -0.2140 H   0  0  0  0  0  0  0  0  0  0  0  0
    1.7444   -2.2779   -0.0380 H   0  0  0  0  0  0  0  0  0  0  0  0
   -2.2769   -2.6283   -0.1406 H   0  0  0  0  0  0  0  0  0  0  0  0
   -4.2269   -1.4392   -1.5016 H   0  0  0  0  0  0  0  0  0  0  0  0
    5.0626   -1.0075   -1.0834 H   0  0  0  0  0  0  0  0  0  0  0  0
    5.9332   -1.0244    0.4849 H   0  0  0  0  0  0  0  0  0  0  0  0
    5.2680   -2.5115   -0.1583 H   0  0  0  0  0  0  0  0  0  0  0  0
    5.7783    1.0949    0.4263 H   0  0  0  0  0  0  0  0  0  0  0  0
    4.9885    1.2510   -1.1911 H   0  0  0  0  0  0  0  0  0  0  0  0
    5.4829    2.6757   -0.2683 H   0  0  0  0  0  0  0  0  0  0  0  0
   -0.6930    3.1647    0.1479 H   0  0  0  0  0  0  0  0  0  0  0  0
   -3.0650    3.0919   -0.1897 H   0  0  0  0  0  0  0  0  0  0  0  0
   -2.9638    1.9972   -2.5419 H   0  0  0  0  0  0  0  0  0  0  0  0
   -4.1056    3.2897   -2.2402 H   0  0  0  0  0  0  0  0  0  0  0  0
   -1.6805    3.2582   -3.9492 H   0  0  0  0  0  0  0  0  0  0  0  0
   -3.3153    3.8047   -4.3093 H   0  0  0  0  0  0  0  0  0  0  0  0
   -1.6510    6.6886   -1.9846 H   0  0  0  0  0  0  0  0  0  0  0  0
   -0.4954    5.3572   -2.0888 H   0  0  0  0  0  0  0  0  0  0  0  0
   -3.3126    5.3565   -0.8949 H   0  0  0  0  0  0  0  0  0  0  0  0
   -1.8141    5.2713    0.0080 H   0  0  0  0  0  0  0  0  0  0  0  0
   -2.3595    5.9853   -5.3455 H   0  0  0  0  0  0  0  0  0  0  0  0
   -0.0288    7.2423   -3.8294 H   0  0  0  0  0  0  0  0  0  0  0  0
   -0.4208    7.5020   -5.5231 H   0  0  0  0  0  0  0  0  0  0  0  0
   -1.5750    8.0016   -4.3015 H   0  0  0  0  0  0  0  0  0  0  0  0
   -1.0834    4.0854   -5.8911 H   0  0  0  0  0  0  0  0  0  0  0  0
   -0.0070    5.4271   -6.1928 H   0  0  0  0  0  0  0  0  0  0  0  0
    0.2045    4.4767   -4.7186 H   0  0  0  0  0  0  0  0  0  0  0  0
   -4.6382   -0.4162    1.3985 H   0  0  0  0  0  0  0  0  0  0  0  0
   -5.7671   -0.1711   -0.0095 H   0  0  0  0  0  0  0  0  0  0  0  0
   -5.9756   -2.7005   -0.2652 H   0  0  0  0  0  0  0  0  0  0  0  0
   -4.8643   -2.9137    1.1599 H   0  0  0  0  0  0  0  0  0  0  0  0
  1  2  2  0  0  0  0
  1 11  1  0  0  0  0
  2  3  1  0  0  0  0
  3  4  2  0  0  0  0
  3 17  1  0  0  0  0
  4  5  1  0  0  0  0
  4  7  1  0  0  0  0
  5  6  2  0  0  0  0
  6  1  1  0  0  0  0
  7  8  2  0  0  0  0
  7 29  1  0  0  0  0
  8  9  1  0  0  0  0
  8 15  1  0  0  0  0
  9 10  2  0  0  0  0
  9 13  1  0  0  0  0
 10  5  1  0  0  0  0
 10 30  1  0  0  0  0
 11 12  1  0  0  0  0
 11 31  1  0  0  0  0
 12 27  1  0  0  0  0
 12 32  1  0  0  0  0
 13 14  1  0  0  0  0
 14 33  1  0  0  0  0
 14 34  1  0  0  0  0
 14 35  1  0  0  0  0
 15 16  1  0  0  0  0
 16 36  1  0  0  0  0
 16 37  1  0  0  0  0
 16 38  1  0  0  0  0
 17 18  1  0  0  0  0
 17 39  1  0  0  0  0
 18 19  1  0  0  0  0
 18 40  1  0  0  0  0
 19 20  1  0  0  0  0
 19 41  1  0  0  0  0
 19 42  1  0  0  0  0
 20 21  1  0  0  0  0
 20 43  1  0  0  0  0
 20 44  1  0  0  0  0
 21 22  1  0  0  0  0
 21 24  1  0  0  0  0
 22 23  1  0  0  0  0
 22 45  1  0  0  0  0
 22 46  1  0  0  0  0
 23 18  1  0  0  0  0
 23 47  1  0  0  0  0
 23 48  1  0  0  0  0
 24 25  1  0  0  0  0
 24 26  1  0  0  0  0
 24 49  1  0  0  0  0
 25 50  1  0  0  0  0
 25 51  1  0  0  0  0
 25 52  1  0  0  0  0
 26 53  1  0  0  0  0
 26 54  1  0  0  0  0
 26 55  1  0  0  0  0
 27 28  1  0  0  0  0
 27 56  1  0  0  0  0
 27 57  1  0  0  0  0
 28 12  1  0  0  0  0
 28 58  1  0  0  0  0
 28 59  1  0  0  0  0
M  END
>  <Mol_ID>
4703

>  <Formula>
C21H31N5O2

>  <MolWeight>
385.50314

>  <Cat>
S8864

>  <Name>
ZT-12-037-01

>  <Synonyms>
N/A

>  <Target>
Serine/threonin kinase

>  <Form>
free base

>  <CAS>
2328073-61-4

>  <URL>
http://www.selleck.cn/products/zt-12-037-01.html

$$$$
