ÐÂ½¨ CS ChemDraw Drawing.cdx
 OpenBabel08302520433D

 65 67  0  0  0  0  0  0  0  0999 V2000
    0.2279   -0.8568    1.6321 C   0  0  0  0  0  0  0  0  0  0  0  0
    1.1098   -0.0012    0.9440 C   0  0  0  0  0  0  0  0  0  0  0  0
    0.5512    0.7984   -0.0929 C   0  0  0  0  0  0  0  0  0  0  0  0
   -0.8200    0.7150   -0.4248 C   0  0  0  0  0  0  0  0  0  0  0  0
   -1.6873   -0.1555    0.2409 C   0  0  0  0  0  0  0  0  0  0  0  0
   -1.1433   -0.8867    1.2870 C   0  0  0  0  0  0  0  0  0  0  0  0
    0.4192   -1.7270    2.6689 O   0  0  0  0  0  0  0  0  0  0  0  0
    2.5644    0.1583    1.2749 C   0  0  0  0  0  0  0  0  0  0  0  0
    1.1754    1.8207   -0.7687 O   0  0  0  0  0  0  0  0  0  0  0  0
   -3.1509   -0.1487   -0.1034 C   0  0  0  0  0  0  0  0  0  0  0  0
    1.6521   -1.9186    3.3229 C   0  0  0  0  0  0  0  0  0  0  0  0
    2.4904    1.6357   -1.2685 C   0  0  0  0  0  0  0  0  0  0  0  0
   -3.9855   -1.2811    0.0791 N   0  0  0  0  0  0  0  0  0  0  0  0
   -3.6016    0.9016   -0.5567 O   0  0  0  0  0  0  0  0  0  0  0  0
   -5.4131   -1.1395   -0.2542 C   0  0  0  0  0  0  0  0  0  0  0  0
   -5.8095   -1.2607   -1.7458 C   0  0  0  0  0  0  0  0  0  0  0  0
   -5.6292   -2.6057   -2.4694 C   0  0  0  0  0  0  0  0  0  0  0  0
   -6.3051   -3.8504   -1.9329 C   0  0  0  0  0  0  0  0  0  0  0  0
   -3.4975   -2.6489    0.2770 C   0  0  0  0  0  0  0  0  0  0  0  0
   -3.5573   -3.2704    1.6653 C   0  0  0  0  0  0  0  0  0  0  0  0
   -3.9937   -2.6428    2.8380 C   0  0  0  0  0  0  0  0  0  0  0  0
   -4.0902   -3.3665    4.0394 C   0  0  0  0  0  0  0  0  0  0  0  0
   -3.7710   -4.7333    4.0786 C   0  0  0  0  0  0  0  0  0  0  0  0
   -3.2418   -5.3359    2.9360 C   0  0  0  0  0  0  0  0  0  0  0  0
   -3.1368   -4.6112    1.7520 C   0  0  0  0  0  0  0  0  0  0  0  0
   -7.5365   -3.8343   -1.2635 C   0  0  0  0  0  0  0  0  0  0  0  0
   -8.1096   -5.0208   -0.7991 C   0  0  0  0  0  0  0  0  0  0  0  0
   -7.4818   -6.2452   -1.0161 C   0  0  0  0  0  0  0  0  0  0  0  0
   -6.2843   -6.2858   -1.7253 C   0  0  0  0  0  0  0  0  0  0  0  0
   -5.7099   -5.1003   -2.1890 C   0  0  0  0  0  0  0  0  0  0  0  0
   -4.1577   -5.5977    5.2574 C   0  0  0  0  0  0  0  0  0  0  0  0
   -5.5476   -6.2124    5.1699 C   0  0  0  0  0  0  0  0  0  0  0  0
   -6.3085   -5.8618    4.1056 O   0  0  0  0  0  0  0  0  0  0  0  0
   -5.9700   -6.9884    6.0178 O   0  0  0  0  0  0  0  0  0  0  0  0
   -1.2145    1.3739   -1.1970 H   0  0  0  0  0  0  0  0  0  0  0  0
   -1.7844   -1.4841    1.9173 H   0  0  0  0  0  0  0  0  0  0  0  0
    3.1830   -0.1925    0.4422 H   0  0  0  0  0  0  0  0  0  0  0  0
    2.7829    1.2060    1.5039 H   0  0  0  0  0  0  0  0  0  0  0  0
    2.9264   -0.3894    2.1338 H   0  0  0  0  0  0  0  0  0  0  0  0
    2.3985   -2.3372    2.6420 H   0  0  0  0  0  0  0  0  0  0  0  0
    1.9834   -1.0017    3.8179 H   0  0  0  0  0  0  0  0  0  0  0  0
    1.4938   -2.6591    4.1137 H   0  0  0  0  0  0  0  0  0  0  0  0
    3.2361    1.8932   -0.5098 H   0  0  0  0  0  0  0  0  0  0  0  0
    2.6528    0.6267   -1.6645 H   0  0  0  0  0  0  0  0  0  0  0  0
    2.6419    2.3446   -2.0863 H   0  0  0  0  0  0  0  0  0  0  0  0
   -5.9945   -1.8315    0.3638 H   0  0  0  0  0  0  0  0  0  0  0  0
   -5.7176   -0.1316    0.0601 H   0  0  0  0  0  0  0  0  0  0  0  0
   -6.8644   -0.9683   -1.8307 H   0  0  0  0  0  0  0  0  0  0  0  0
   -5.2492   -0.5106   -2.3189 H   0  0  0  0  0  0  0  0  0  0  0  0
   -4.5563   -2.7969   -2.5717 H   0  0  0  0  0  0  0  0  0  0  0  0
   -6.0070   -2.4783   -3.4975 H   0  0  0  0  0  0  0  0  0  0  0  0
   -2.4867   -2.7327   -0.1180 H   0  0  0  0  0  0  0  0  0  0  0  0
   -4.1262   -3.2950   -0.3480 H   0  0  0  0  0  0  0  0  0  0  0  0
   -4.2724   -1.5899    2.8375 H   0  0  0  0  0  0  0  0  0  0  0  0
   -4.4607   -2.8674    4.9353 H   0  0  0  0  0  0  0  0  0  0  0  0
   -2.9593   -6.3874    2.9393 H   0  0  0  0  0  0  0  0  0  0  0  0
   -2.7520   -5.1151    0.8666 H   0  0  0  0  0  0  0  0  0  0  0  0
   -8.0695   -2.9007   -1.1026 H   0  0  0  0  0  0  0  0  0  0  0  0
   -9.0622   -4.9944   -0.2716 H   0  0  0  0  0  0  0  0  0  0  0  0
   -7.9286   -7.1638   -0.6514 H   0  0  0  0  0  0  0  0  0  0  0  0
   -5.8036   -7.2405   -1.9274 H   0  0  0  0  0  0  0  0  0  0  0  0
   -4.7868   -5.1583   -2.7636 H   0  0  0  0  0  0  0  0  0  0  0  0
   -3.4414   -6.4254    5.3449 H   0  0  0  0  0  0  0  0  0  0  0  0
   -4.1043   -5.0156    6.1837 H   0  0  0  0  0  0  0  0  0  0  0  0
   -5.8898   -5.2474    3.4657 H   0  0  0  0  0  0  0  0  0  0  0  0
  1  2  2  0  0  0  0
  1  7  1  0  0  0  0
  2  3  1  0  0  0  0
  2  8  1  0  0  0  0
  3  4  2  0  0  0  0
  3  9  1  0  0  0  0
  4  5  1  0  0  0  0
  4 35  1  0  0  0  0
  5  6  2  0  0  0  0
  5 10  1  0  0  0  0
  6  1  1  0  0  0  0
  6 36  1  0  0  0  0
  7 11  1  0  0  0  0
  8 37  1  0  0  0  0
  8 38  1  0  0  0  0
  8 39  1  0  0  0  0
  9 12  1  0  0  0  0
 10 13  1  0  0  0  0
 10 14  2  0  0  0  0
 11 40  1  0  0  0  0
 11 41  1  0  0  0  0
 11 42  1  0  0  0  0
 12 43  1  0  0  0  0
 12 44  1  0  0  0  0
 12 45  1  0  0  0  0
 13 15  1  0  0  0  0
 13 19  1  0  0  0  0
 15 16  1  0  0  0  0
 15 46  1  0  0  0  0
 15 47  1  0  0  0  0
 16 17  1  0  0  0  0
 16 48  1  0  0  0  0
 16 49  1  0  0  0  0
 17 18  1  0  0  0  0
 17 50  1  0  0  0  0
 17 51  1  0  0  0  0
 18 26  2  0  0  0  0
 19 20  1  0  0  0  0
 19 52  1  0  0  0  0
 19 53  1  0  0  0  0
 20 21  2  0  0  0  0
 21 22  1  0  0  0  0
 21 54  1  0  0  0  0
 22 23  2  0  0  0  0
 22 55  1  0  0  0  0
 23 24  1  0  0  0  0
 23 31  1  0  0  0  0
 24 25  2  0  0  0  0
 24 56  1  0  0  0  0
 25 20  1  0  0  0  0
 25 57  1  0  0  0  0
 26 27  1  0  0  0  0
 26 58  1  0  0  0  0
 27 28  2  0  0  0  0
 27 59  1  0  0  0  0
 28 29  1  0  0  0  0
 28 60  1  0  0  0  0
 29 30  2  0  0  0  0
 29 61  1  0  0  0  0
 30 18  1  0  0  0  0
 30 62  1  0  0  0  0
 31 32  1  0  0  0  0
 31 63  1  0  0  0  0
 31 64  1  0  0  0  0
 32 33  1  0  0  0  0
 32 34  2  0  0  0  0
 33 65  1  0  0  0  0
M  END
>  <Mol_ID>
4074

>  <Formula>
C28H31NO5

>  <MolWeight>
461.54944

>  <Cat>
S8345

>  <Name>
ONO-7300243

>  <Synonyms>
ONO 7300243, ONO7300243

>  <Target>
LPA Receptor

>  <Form>
free base

>  <CAS>
638132-34-0

>  <URL>
http://selleckchem.com/products/ono-7300243.html

$$$$
