Caudatin


 39 42  0  0  0  0  0  0  0  0999 V2000
    4.3298   25.0250   49.5245 C   0  0  0  0  0  0  0  0  0  0  0  0
    3.8111   25.3310   50.9343 C   0  0  0  0  0  0  0  0  0  0  0  0
    4.9571   25.4606   51.9557 C   0  0  0  0  0  0  0  0  0  0  0  0
    5.5855   24.0837   51.9614 C   0  0  0  0  0  0  0  0  0  0  0  0
    6.2770   23.6841   50.6624 C   0  0  0  0  0  0  0  0  0  0  0  0
    5.8149   24.6356   49.4962 C   0  0  0  0  0  0  0  0  0  0  0  0
    5.1286   23.2156   52.8827 C   0  0  0  0  0  0  0  0  0  0  0  0
    4.9254   21.7576   52.5975 C   0  0  0  0  0  0  0  0  0  0  0  0
    5.7249   21.1910   51.4107 C   0  0  0  0  0  0  0  0  0  0  0  0
    5.8705   22.2328   50.2843 C   0  0  0  0  0  0  0  0  0  0  0  0
    5.1549   19.7927   50.8587 C   0  0  0  0  0  0  0  0  0  0  0  0
    5.3415   19.5001   49.2781 C   0  0  0  0  0  0  0  0  0  0  0  0
    5.8669   20.7104   48.4274 C   0  0  0  0  0  0  0  0  0  0  0  0
    6.7684   21.6348   49.1958 C   0  0  0  0  0  0  0  0  0  0  0  0
    2.9927   26.4905   50.9232 O   0  0  0  0  0  0  0  0  0  0  0  0
    7.8034   23.8791   50.8105 C   0  0  0  0  0  0  0  0  0  0  0  0
    7.0534   20.8893   51.9268 O   0  0  0  0  0  0  0  0  0  0  0  0
    3.6754   19.4421   51.1336 C   0  0  0  0  0  0  0  0  0  0  0  0
    2.9332   19.6508   49.8428 C   0  0  0  0  0  0  0  0  0  0  0  0
    3.8777   19.1590   48.7549 C   0  0  0  0  0  0  0  0  0  0  0  0
    5.8363   18.7752   51.6433 O   0  0  0  0  0  0  0  0  0  0  0  0
    6.3270   18.3085   49.1012 C   0  0  0  0  0  0  0  0  0  0  0  0
    3.4935   19.9665   47.6205 O   0  0  0  0  0  0  0  0  0  0  0  0
    2.2202   26.2788   50.3686 H   0  0  0  0  0  0  0  0  0  0  0  0
    7.3198   21.6392   52.4921 H   0  0  0  0  0  0  0  0  0  0  0  0
    6.6767   19.1967   51.9345 H   0  0  0  0  0  0  0  0  0  0  0  0
    2.9093   19.4459   47.0378 H   0  0  0  0  0  0  0  0  0  0  0  0
    3.6790   17.7133   48.2465 C   0  0  0  0  0  0  0  0  0  0  0  0
    4.0120   17.3568   46.8300 C   0  0  0  0  0  0  0  0  0  0  0  0
    3.3250   16.8220   49.0307 O   0  0  0  0  0  0  0  0  0  0  0  0
    6.5728   20.2365   47.2666 O   0  0  0  0  0  0  0  0  0  0  0  0
    6.4447   20.9545   46.1267 C   0  0  0  0  0  0  0  0  0  0  0  0
    5.6206   20.8313   45.2425 O   0  0  0  0  0  0  0  0  0  0  0  0
    7.5753   21.9079   46.1854 C   0  0  0  0  0  0  0  0  0  0  0  0
    8.8842   21.6242   46.0385 C   0  0  0  0  0  0  0  0  0  0  0  0
    9.4070   20.2397   45.7709 C   0  0  0  0  0  0  0  0  0  0  0  0
    9.8764   22.7689   46.1600 C   0  0  0  0  0  0  0  0  0  0  0  0
   11.3053   22.2901   45.9163 C   0  0  0  0  0  0  0  0  0  0  0  0
    9.7294   23.5157   47.4868 C   0  0  0  0  0  0  0  0  0  0  0  0
  1  2  1  0  0  0
  2  3  1  0  0  0
  2 15  1  0  0  0
  3  4  1  0  0  0
  4  5  1  0  0  0
  4  7  2  0  0  0
  5  6  1  0  0  0
  5 16  1  0  0  0
  6  1  1  0  0  0
  7  8  1  0  0  0
  8  9  1  0  0  0
  9 10  1  0  0  0
  9 11  1  0  0  0
  9 17  1  0  0  0
 10  5  1  0  0  0
 10 14  1  0  0  0
 11 12  1  0  0  0
 11 18  1  0  0  0
 11 21  1  0  0  0
 12 13  1  0  0  0
 12 22  1  0  0  0
 13 14  1  0  0  0
 13 31  1  0  0  0
 15 24  1  0  0  0
 17 25  1  0  0  0
 18 19  1  0  0  0
 20 12  1  0  0  0
 20 19  1  0  0  0
 20 28  1  0  0  0
 20 23  1  0  0  0
 21 26  1  0  0  0
 31 32  1  0  0  0
 32 34  1  0  0  0
 32 33  2  0  0  0
 34 35  2  0  0  0
 35 37  1  0  0  0
 35 36  1  0  0  0
 37 38  1  0  0  0
 37 39  1  0  0  0
 28 29  1  0  0  0
 28 30  2  0  0  0
 23 27  1  0  0  0
M  END
> <minimizedAffinity>
-10.05784

$$$$
Caudatin


 39 42  0  0  0  0  0  0  0  0999 V2000
    3.7516   25.3245   50.1948 C   0  0  0  0  0  0  0  0  0  0  0  0
    4.0679   25.8824   51.5872 C   0  0  0  0  0  0  0  0  0  0  0  0
    5.5352   26.3358   51.7080 C   0  0  0  0  0  0  0  0  0  0  0  0
    6.3199   25.0566   51.5115 C   0  0  0  0  0  0  0  0  0  0  0  0
    6.2234   24.4477   50.1167 C   0  0  0  0  0  0  0  0  0  0  0  0
    5.0045   25.0754   49.3426 C   0  0  0  0  0  0  0  0  0  0  0  0
    6.6475   24.3726   52.6232 C   0  0  0  0  0  0  0  0  0  0  0  0
    6.6182   22.8753   52.6963 C   0  0  0  0  0  0  0  0  0  0  0  0
    6.7051   22.1385   51.3478 C   0  0  0  0  0  0  0  0  0  0  0  0
    5.9775   22.9180   50.2351 C   0  0  0  0  0  0  0  0  0  0  0  0
    6.2195   20.6073   51.4177 C   0  0  0  0  0  0  0  0  0  0  0  0
    5.5382   19.9950   50.0837 C   0  0  0  0  0  0  0  0  0  0  0  0
    5.2362   21.0330   48.9454 C   0  0  0  0  0  0  0  0  0  0  0  0
    6.2048   22.1811   48.9107 C   0  0  0  0  0  0  0  0  0  0  0  0
    3.1719   26.9320   51.9188 O   0  0  0  0  0  0  0  0  0  0  0  0
    7.4908   24.8087   49.3084 C   0  0  0  0  0  0  0  0  0  0  0  0
    8.1212   22.0792   51.0113 O   0  0  0  0  0  0  0  0  0  0  0  0
    5.2593   20.1919   52.5546 C   0  0  0  0  0  0  0  0  0  0  0  0
    3.8956   20.0452   51.9386 C   0  0  0  0  0  0  0  0  0  0  0  0
    4.1393   19.4159   50.5740 C   0  0  0  0  0  0  0  0  0  0  0  0
    7.4127   19.8522   51.7662 O   0  0  0  0  0  0  0  0  0  0  0  0
    6.4688   18.8884   49.5076 C   0  0  0  0  0  0  0  0  0  0  0  0
    3.0299   19.9177   49.7971 O   0  0  0  0  0  0  0  0  0  0  0  0
    2.2831   26.5348   51.9594 H   0  0  0  0  0  0  0  0  0  0  0  0
    8.5017   22.9555   51.2117 H   0  0  0  0  0  0  0  0  0  0  0  0
    8.1651   20.4019   51.4494 H   0  0  0  0  0  0  0  0  0  0  0  0
    2.3386   19.2314   49.7423 H   0  0  0  0  0  0  0  0  0  0  0  0
    3.9854   17.8820   50.4651 C   0  0  0  0  0  0  0  0  0  0  0  0
    3.5124   17.2579   49.1879 C   0  0  0  0  0  0  0  0  0  0  0  0
    4.3347   17.1543   51.4048 O   0  0  0  0  0  0  0  0  0  0  0  0
    5.2440   20.3835   47.6615 O   0  0  0  0  0  0  0  0  0  0  0  0
    4.0453   20.1334   47.0856 C   0  0  0  0  0  0  0  0  0  0  0  0
    3.0757   20.8617   47.0077 O   0  0  0  0  0  0  0  0  0  0  0  0
    4.1734   18.7402   46.6029 C   0  0  0  0  0  0  0  0  0  0  0  0
    5.2658   18.1661   46.0623 C   0  0  0  0  0  0  0  0  0  0  0  0
    6.5727   18.8860   45.8735 C   0  0  0  0  0  0  0  0  0  0  0  0
    5.1586   16.7175   45.6154 C   0  0  0  0  0  0  0  0  0  0  0  0
    5.3405   16.5901   44.1051 C   0  0  0  0  0  0  0  0  0  0  0  0
    3.8666   16.0613   46.1051 C   0  0  0  0  0  0  0  0  0  0  0  0
  1  2  1  0  0  0
  2  3  1  0  0  0
  2 15  1  0  0  0
  3  4  1  0  0  0
  4  5  1  0  0  0
  4  7  2  0  0  0
  5  6  1  0  0  0
  5 16  1  0  0  0
  6  1  1  0  0  0
  7  8  1  0  0  0
  8  9  1  0  0  0
  9 10  1  0  0  0
  9 11  1  0  0  0
  9 17  1  0  0  0
 10  5  1  0  0  0
 10 14  1  0  0  0
 11 12  1  0  0  0
 11 18  1  0  0  0
 11 21  1  0  0  0
 12 13  1  0  0  0
 12 22  1  0  0  0
 13 14  1  0  0  0
 13 31  1  0  0  0
 15 24  1  0  0  0
 17 25  1  0  0  0
 18 19  1  0  0  0
 20 12  1  0  0  0
 20 19  1  0  0  0
 20 28  1  0  0  0
 20 23  1  0  0  0
 21 26  1  0  0  0
 31 32  1  0  0  0
 32 34  1  0  0  0
 32 33  2  0  0  0
 34 35  2  0  0  0
 35 37  1  0  0  0
 35 36  1  0  0  0
 37 38  1  0  0  0
 37 39  1  0  0  0
 28 29  1  0  0  0
 28 30  2  0  0  0
 23 27  1  0  0  0
M  END
> <minimizedAffinity>
-8.15028

$$$$
Caudatin


 39 42  0  0  0  0  0  0  0  0999 V2000
    6.1635   18.0061   46.1664 C   0  0  0  0  0  0  0  0  0  0  0  0
    5.6011   16.6415   46.5805 C   0  0  0  0  0  0  0  0  0  0  0  0
    4.0633   16.6016   46.4983 C   0  0  0  0  0  0  0  0  0  0  0  0
    3.6260   17.6324   47.5167 C   0  0  0  0  0  0  0  0  0  0  0  0
    3.9881   19.0733   47.1733 C   0  0  0  0  0  0  0  0  0  0  0  0
    5.0867   19.0942   46.0455 C   0  0  0  0  0  0  0  0  0  0  0  0
    3.3730   17.1831   48.7598 C   0  0  0  0  0  0  0  0  0  0  0  0
    3.7509   17.9462   49.9939 C   0  0  0  0  0  0  0  0  0  0  0  0
    3.9620   19.4591   49.8059 C   0  0  0  0  0  0  0  0  0  0  0  0
    4.5793   19.7723   48.4289 C   0  0  0  0  0  0  0  0  0  0  0  0
    4.7895   20.1476   51.0001 C   0  0  0  0  0  0  0  0  0  0  0  0
    5.7128   21.4186   50.6117 C   0  0  0  0  0  0  0  0  0  0  0  0
    5.8592   21.6988   49.0740 C   0  0  0  0  0  0  0  0  0  0  0  0
    4.6523   21.2953   48.2751 C   0  0  0  0  0  0  0  0  0  0  0  0
    6.1887   15.6055   45.8086 O   0  0  0  0  0  0  0  0  0  0  0  0
    2.7483   19.7916   46.5930 C   0  0  0  0  0  0  0  0  0  0  0  0
    2.6362   20.0607   49.8583 O   0  0  0  0  0  0  0  0  0  0  0  0
    5.7161   19.2590   51.8599 C   0  0  0  0  0  0  0  0  0  0  0  0
    7.1247   19.5503   51.4224 C   0  0  0  0  0  0  0  0  0  0  0  0
    7.1600   21.0497   51.1615 C   0  0  0  0  0  0  0  0  0  0  0  0
    3.7841   20.5349   51.9770 O   0  0  0  0  0  0  0  0  0  0  0  0
    5.1270   22.6906   51.2910 C   0  0  0  0  0  0  0  0  0  0  0  0
    8.1827   21.1655   50.1481 O   0  0  0  0  0  0  0  0  0  0  0  0
    7.1392   15.6057   46.0229 H   0  0  0  0  0  0  0  0  0  0  0  0
    2.0420   19.4944   49.3301 H   0  0  0  0  0  0  0  0  0  0  0  0
    2.9537   20.6444   51.4601 H   0  0  0  0  0  0  0  0  0  0  0  0
    9.0195   21.4440   50.5655 H   0  0  0  0  0  0  0  0  0  0  0  0
    7.6832   21.9535   52.3005 C   0  0  0  0  0  0  0  0  0  0  0  0
    8.4938   23.1737   51.9865 C   0  0  0  0  0  0  0  0  0  0  0  0
    7.3627   21.7219   53.4745 O   0  0  0  0  0  0  0  0  0  0  0  0
    6.1202   23.0948   48.8428 O   0  0  0  0  0  0  0  0  0  0  0  0
    7.4056   23.4577   48.6252 C   0  0  0  0  0  0  0  0  0  0  0  0
    8.0363   24.3581   49.1426 O   0  0  0  0  0  0  0  0  0  0  0  0
    7.8593   22.5222   47.5719 C   0  0  0  0  0  0  0  0  0  0  0  0
    9.0474   22.5303   46.9366 C   0  0  0  0  0  0  0  0  0  0  0  0
   10.1353   23.5273   47.2265 C   0  0  0  0  0  0  0  0  0  0  0  0
    9.2872   21.4780   45.8667 C   0  0  0  0  0  0  0  0  0  0  0  0
    8.7550   20.1152   46.3026 C   0  0  0  0  0  0  0  0  0  0  0  0
   10.7543   21.4217   45.4375 C   0  0  0  0  0  0  0  0  0  0  0  0
  1  2  1  0  0  0
  2  3  1  0  0  0
  2 15  1  0  0  0
  3  4  1  0  0  0
  4  5  1  0  0  0
  4  7  2  0  0  0
  5  6  1  0  0  0
  5 16  1  0  0  0
  6  1  1  0  0  0
  7  8  1  0  0  0
  8  9  1  0  0  0
  9 10  1  0  0  0
  9 11  1  0  0  0
  9 17  1  0  0  0
 10  5  1  0  0  0
 10 14  1  0  0  0
 11 12  1  0  0  0
 11 18  1  0  0  0
 11 21  1  0  0  0
 12 13  1  0  0  0
 12 22  1  0  0  0
 13 14  1  0  0  0
 13 31  1  0  0  0
 15 24  1  0  0  0
 17 25  1  0  0  0
 18 19  1  0  0  0
 20 12  1  0  0  0
 20 19  1  0  0  0
 20 28  1  0  0  0
 20 23  1  0  0  0
 21 26  1  0  0  0
 31 32  1  0  0  0
 32 34  1  0  0  0
 32 33  2  0  0  0
 34 35  2  0  0  0
 35 37  1  0  0  0
 35 36  1  0  0  0
 37 38  1  0  0  0
 37 39  1  0  0  0
 28 29  1  0  0  0
 28 30  2  0  0  0
 23 27  1  0  0  0
M  END
> <minimizedAffinity>
-6.50110

$$$$
