3-Pyridineacetic acid
     RDKit          3D

 17 17  0  0  0  0  0  0  0  0999 V2000
    1.2869   -0.8539    0.0038 C   0  0  0  0  0  0  0  0  0  0  0  0
    2.2555    0.1932    0.4230 C   0  0  0  0  0  0  0  0  0  0  0  0
    2.7826    0.9564   -0.6377 O   0  0  0  0  0  0  0  0  0  0  0  0
    2.5941    0.3988    1.6302 O   0  0  0  0  0  0  0  0  0  0  0  0
   -0.1070   -0.4386    0.2068 C   0  0  0  0  0  0  0  0  0  0  0  0
   -0.5108    0.8454    0.4283 C   0  0  0  0  0  0  0  0  0  0  0  0
   -1.1222   -1.4345    0.1026 C   0  0  0  0  0  0  0  0  0  0  0  0
   -1.8453    1.1910    0.5463 C   0  0  0  0  0  0  0  0  0  0  0  0
   -2.4255   -1.1148    0.2191 N   0  0  0  0  0  0  0  0  0  0  0  0
   -2.7726    0.1504    0.4321 C   0  0  0  0  0  0  0  0  0  0  0  0
    1.4582   -1.7558    0.6770 H   0  0  0  0  0  0  0  0  0  0  0  0
    1.4546   -1.2621   -1.0066 H   0  0  0  0  0  0  0  0  0  0  0  0
    3.6385    1.5192   -0.5288 H   0  0  0  0  0  0  0  0  0  0  0  0
    0.2375    1.5871    0.5185 H   0  0  0  0  0  0  0  0  0  0  0  0
   -0.8268   -2.4891   -0.0911 H   0  0  0  0  0  0  0  0  0  0  0  0
   -2.2364    2.1506    0.7233 H   0  0  0  0  0  0  0  0  0  0  0  0
   -3.8612    0.3566    0.5128 H   0  0  0  0  0  0  0  0  0  0  0  0
  1  2  1  0
  1  5  1  0
  2  3  1  0
  2  4  2  0
  5  6  2  0
  5  7  1  0
  6  8  1  0
  7  9  2  0
  8 10  2  0
  9 10  1  0
  1 11  1  0
  1 12  1  0
  3 13  1  0
  6 14  1  0
  7 15  1  0
  8 16  1  0
 10 17  1  0
M  END
>  <Mol_ID>  (1) 
7393

>  <Formula>  (1) 
C7H7NO2

>  <MolWeight>  (1) 
137.13598

>  <Cat>  (1) 
E4482

>  <Name>  (1) 
3-Pyridineacetic acid

>  <Target>  (1) 
Others

>  <Form>  (1) 
Free base

>  <CAS>  (1) 
501-81-5

>  <URL>  (1) 
https://www.selleckchem.com/products/3-pyridineacetic-acid.html

$$$$
