Aconine
     RDKit          2D

 76 81  0  0  1  0  0  0  0  0999 V2000
   -3.5378    2.3156    0.0000 O   0  0  0  0  0  0  0  0  0  0  0  0
   -3.7465    3.8010    0.0000 C   0  0  0  0  0  0  0  0  0  0  0  0
    2.1328    3.1443    0.0000 C   0  0  0  0  0  0  0  0  0  0  0  0
    3.5593    3.6078    0.0000 O   0  0  0  0  0  0  0  0  0  0  0  0
    3.8712    5.0750    0.0000 C   0  0  0  0  0  0  0  0  0  0  0  0
    2.3907    1.0037    0.0000 O   0  0  0  0  0  0  0  0  0  0  0  0
    3.8173    0.5402    0.0000 C   0  0  0  0  0  0  0  0  0  0  0  0
    1.6677   -1.1696    0.0000 C   0  0  0  0  0  0  0  0  0  0  0  0
    2.4874   -2.4258    0.0000 C   0  0  0  0  0  0  0  0  0  0  0  0
    0.7735    4.6079    0.0000 O   0  0  0  0  0  0  0  0  0  0  0  0
   -0.6624   -3.5870    0.0000 O   0  0  0  0  0  0  0  0  0  0  0  0
   -4.7734   -2.9769    0.0000 O   0  0  0  0  0  0  0  0  0  0  0  0
   -6.0553   -1.1373    0.0000 O   0  0  0  0  0  0  0  0  0  0  0  0
   -3.4489   -4.2090    0.0000 O   0  0  0  0  0  0  0  0  0  0  0  0
   -5.7127   -2.5290    0.0000 O   0  0  0  0  0  0  0  0  0  0  0  0
   -6.3839   -3.8705    0.0000 C   0  0  0  0  0  0  0  0  0  0  0  0
   -1.0323    0.7500    0.0000 C   0  0  0  0  0  0  0  0  0  0  0  0
    0.3943    1.2135    0.0000 C   0  0  0  0  0  0  0  0  0  0  0  0
   -1.0323   -0.7500    0.0000 C   0  0  0  0  0  0  0  0  0  0  0  0
   -2.3463    0.0067    0.0000 C   0  0  0  0  0  0  0  0  0  0  0  0
   -2.1470    1.7537    0.0000 C   0  0  0  0  0  0  0  0  0  0  0  0
    0.7062    2.6807    0.0000 C   0  0  0  0  0  0  0  0  0  0  0  0
   -0.1240   -0.0000    0.0000 C   0  0  0  0  0  0  0  0  0  0  0  0
    0.3943   -1.2135    0.0000 C   0  0  0  0  0  0  0  0  0  0  0  0
    0.8479    0.0865    0.0000 N   0  0  0  0  0  0  0  0  0  0  0  0
   -2.1895   -1.4851    0.0000 C   0  0  0  0  0  0  0  0  0  0  0  0
   -3.8136    0.3186    0.0000 C   0  0  0  0  0  0  0  0  0  0  0  0
   -1.8351    3.2209    0.0000 C   0  0  0  0  0  0  0  0  0  0  0  0
    1.5259    1.4246    0.0000 C   0  0  0  0  0  0  0  0  0  0  0  0
   -0.4086    3.6844    0.0000 C   0  0  0  0  0  0  0  0  0  0  0  0
   -0.8192   -2.0952    0.0000 C   0  0  0  0  0  0  0  0  0  0  0  0
   -3.5599   -2.0952    0.0000 C   0  0  0  0  0  0  0  0  0  0  0  0
   -4.5636   -0.9805    0.0000 C   0  0  0  0  0  0  0  0  0  0  0  0
   -2.7778   -2.8675    0.0000 C   0  0  0  0  0  0  0  0  0  0  0  0
   -4.2154   -2.4395    0.0000 C   0  0  0  0  0  0  0  0  0  0  0  0
   -3.9553    5.2864    0.0000 H   0  0  0  0  0  0  0  0  0  0  0  0
   -5.2319    3.5922    0.0000 H   0  0  0  0  0  0  0  0  0  0  0  0
   -2.2977    4.1893    0.0000 H   0  0  0  0  0  0  0  0  0  0  0  0
    2.0282    4.6406    0.0000 H   0  0  0  0  0  0  0  0  0  0  0  0
    3.0768    1.9786    0.0000 H   0  0  0  0  0  0  0  0  0  0  0  0
    4.1831    6.5422    0.0000 H   0  0  0  0  0  0  0  0  0  0  0  0
    5.3384    4.7632    0.0000 H   0  0  0  0  0  0  0  0  0  0  0  0
    2.4040    5.3869    0.0000 H   0  0  0  0  0  0  0  0  0  0  0  0
    5.2439    0.0766    0.0000 H   0  0  0  0  0  0  0  0  0  0  0  0
    4.2808    1.9668    0.0000 H   0  0  0  0  0  0  0  0  0  0  0  0
    3.7127   -0.9562    0.0000 H   0  0  0  0  0  0  0  0  0  0  0  0
    0.7888   -2.3852    0.0000 H   0  0  0  0  0  0  0  0  0  0  0  0
    3.1342   -0.8546    0.0000 H   0  0  0  0  0  0  0  0  0  0  0  0
    3.3072   -3.6820    0.0000 H   0  0  0  0  0  0  0  0  0  0  0  0
    3.8342   -1.7653    0.0000 H   0  0  0  0  0  0  0  0  0  0  0  0
    1.3405   -3.3926    0.0000 H   0  0  0  0  0  0  0  0  0  0  0  0
    0.5647    6.0933    0.0000 H   0  0  0  0  0  0  0  0  0  0  0  0
    0.7079   -4.1971    0.0000 H   0  0  0  0  0  0  0  0  0  0  0  0
   -6.2506   -2.7165    0.0000 H   0  0  0  0  0  0  0  0  0  0  0  0
   -6.9370    0.0762    0.0000 H   0  0  0  0  0  0  0  0  0  0  0  0
   -2.6227   -5.4610    0.0000 H   0  0  0  0  0  0  0  0  0  0  0  0
   -7.0550   -5.2120    0.0000 H   0  0  0  0  0  0  0  0  0  0  0  0
   -7.7253   -3.1994    0.0000 H   0  0  0  0  0  0  0  0  0  0  0  0
   -5.1342   -4.7002    0.0000 H   0  0  0  0  0  0  0  0  0  0  0  0
   -0.8192    2.0952    0.0000 H   0  0  0  0  0  0  0  0  0  0  0  0
   -1.9964   -1.8991    0.0000 H   0  0  0  0  0  0  0  0  0  0  0  0
   -2.8347    1.4249    0.0000 H   0  0  0  0  0  0  0  0  0  0  0  0
   -3.2261    0.7118    0.0000 H   0  0  0  0  0  0  0  0  0  0  0  0
    2.6764   -0.5374    0.0000 H   0  0  0  0  0  0  0  0  0  0  0  0
    0.4989   -2.7099    0.0000 H   0  0  0  0  0  0  0  0  0  0  0  0
   -2.3724   -2.9739    0.0000 H   0  0  0  0  0  0  0  0  0  0  0  0
   -3.8922    1.8165    0.0000 H   0  0  0  0  0  0  0  0  0  0  0  0
   -5.1839    0.9287    0.0000 H   0  0  0  0  0  0  0  0  0  0  0  0
   -1.8613    4.7207    0.0000 H   0  0  0  0  0  0  0  0  0  0  0  0
   -3.2770    3.6345    0.0000 H   0  0  0  0  0  0  0  0  0  0  0  0
    2.7375    2.3089    0.0000 H   0  0  0  0  0  0  0  0  0  0  0  0
    2.9688    1.0144    0.0000 H   0  0  0  0  0  0  0  0  0  0  0  0
   -1.1128    5.0089    0.0000 H   0  0  0  0  0  0  0  0  0  0  0  0
   -3.3253   -3.5768    0.0000 H   0  0  0  0  0  0  0  0  0  0  0  0
   -1.5732   -3.7614    0.0000 H   0  0  0  0  0  0  0  0  0  0  0  0
   -4.2043   -3.9395    0.0000 H   0  0  0  0  0  0  0  0  0  0  0  0
  1  2  1  0
  3  4  1  0
  4  5  1  0
  6  7  1  0
  8  9  1  0
  8 25  1  0
 15 16  1  0
 17 18  1  0
 17 19  1  0
 17 20  1  0
 17 21  1  1
 18 22  1  0
 18 23  1  0
 19 24  1  0
 19 25  1  0
 20 27  1  0
 21  1  1  0
 21 28  1  0
 22  3  1  6
 22 29  1  0
 22 30  1  0
 23  6  1  0
 24 23  1  0
 24 31  1  0
 25 29  1  0
 26 20  1  0
 26 31  1  0
 26 32  1  0
 28 30  1  0
 30 10  1  0
 31 11  1  1
 31 34  1  0
 32 12  1  0
 32 33  1  0
 33 13  1  1
 33 27  1  0
 33 35  1  0
 34 14  1  0
 34 35  1  0
 35 15  1  0
  2 36  1  0
  2 37  1  0
  2 38  1  0
  3 39  1  0
  3 40  1  0
  5 41  1  0
  5 42  1  0
  5 43  1  0
  7 44  1  0
  7 45  1  0
  7 46  1  0
  8 47  1  0
  8 48  1  0
  9 49  1  0
  9 50  1  0
  9 51  1  0
 10 52  1  0
 11 53  1  0
 12 54  1  0
 13 55  1  0
 14 56  1  0
 16 57  1  0
 16 58  1  0
 16 59  1  0
 18 60  1  6
 19 61  1  1
 20 62  1  1
 21 63  1  6
 23 64  1  1
 24 65  1  6
 26 66  1  1
 27 67  1  0
 27 68  1  0
 28 69  1  0
 28 70  1  0
 29 71  1  0
 29 72  1  0
 30 73  1  6
 32 74  1  1
 34 75  1  6
 35 76  1  6
M  END
>  <Mol_ID>  (1) 
9629

>  <Formula>  (1) 
C25H41NO9

>  <MolWeight>  (1) 
499.59434

>  <Cat>  (1) 
E2065

>  <Name>  (1) 
Aconine

>  <Synonyms>  (1) 
Jesaconine

>  <Target>  (1) 
NF-¦ÊB, NFATc1

>  <Form>  (1) 
Free base

>  <CAS>  (1) 
509-20-6

>  <URL>  (1) 
https://www.selleckchem.com/products/aconine.html

$$$$
