Apararenone
     RDKit          3D

 42 44  0  0  0  0  0  0  0  0999 V2000
   -3.2150   -0.5558    1.7938 O   0  0  0  0  0  0  0  0  0  0  0  0
   -2.5209   -2.4161   -0.8742 C   0  0  0  0  0  0  0  0  0  0  0  0
   -2.6291   -3.1629    1.4841 C   0  0  0  0  0  0  0  0  0  0  0  0
    3.6833   -1.0468   -1.4675 N   0  0  0  0  0  0  0  0  0  0  0  0
    5.1093   -0.1715   -1.0697 S   0  0  0  0  0  0  0  0  0  0  0  0
    5.4760   -0.2160    0.6671 C   0  0  0  0  0  0  0  0  0  0  0  0
    4.8362    1.2831   -1.4182 O   0  0  0  0  0  0  0  0  0  0  0  0
    6.2534   -0.6929   -1.8636 O   0  0  0  0  0  0  0  0  0  0  0  0
   -3.1921    5.4571    0.1855 F   0  0  0  0  0  0  0  0  0  0  0  0
   -1.4379    0.2164    0.5232 N   0  0  0  0  0  0  0  0  0  0  0  0
   -0.1491   -0.1421    0.0272 C   0  0  0  0  0  0  0  0  0  0  0  0
   -2.2775   -0.8272    1.0031 C   0  0  0  0  0  0  0  0  0  0  0  0
    0.2942   -1.4476    0.0018 C   0  0  0  0  0  0  0  0  0  0  0  0
    0.6531    0.8732   -0.4335 C   0  0  0  0  0  0  0  0  0  0  0  0
   -1.9802   -2.2024    0.5236 C   0  0  0  0  0  0  0  0  0  0  0  0
    1.5528   -1.7289   -0.4910 C   0  0  0  0  0  0  0  0  0  0  0  0
   -0.5711   -2.4187    0.4836 O   0  0  0  0  0  0  0  0  0  0  0  0
    1.8963    0.5573   -0.9156 C   0  0  0  0  0  0  0  0  0  0  0  0
    2.4003   -0.7268   -0.9692 C   0  0  0  0  0  0  0  0  0  0  0  0
   -1.8474    1.5662    0.5290 C   0  0  0  0  0  0  0  0  0  0  0  0
   -2.5087    2.0237   -0.6143 C   0  0  0  0  0  0  0  0  0  0  0  0
   -1.6497    2.4449    1.5505 C   0  0  0  0  0  0  0  0  0  0  0  0
   -2.9545    3.3232   -0.7219 C   0  0  0  0  0  0  0  0  0  0  0  0
   -2.0816    3.7670    1.4886 C   0  0  0  0  0  0  0  0  0  0  0  0
   -2.7384    4.1960    0.3360 C   0  0  0  0  0  0  0  0  0  0  0  0
   -1.8330   -1.9913   -1.6201 H   0  0  0  0  0  0  0  0  0  0  0  0
   -2.6244   -3.4814   -1.0875 H   0  0  0  0  0  0  0  0  0  0  0  0
   -3.5005   -1.8934   -1.0169 H   0  0  0  0  0  0  0  0  0  0  0  0
   -2.7751   -4.1371    0.9663 H   0  0  0  0  0  0  0  0  0  0  0  0
   -3.6297   -2.7365    1.7886 H   0  0  0  0  0  0  0  0  0  0  0  0
   -1.9699   -3.2570    2.3751 H   0  0  0  0  0  0  0  0  0  0  0  0
    3.7334   -1.8777   -2.1197 H   0  0  0  0  0  0  0  0  0  0  0  0
    4.6105    0.0686    1.2643 H   0  0  0  0  0  0  0  0  0  0  0  0
    6.2988    0.4854    0.8493 H   0  0  0  0  0  0  0  0  0  0  0  0
    5.8521   -1.2437    0.9360 H   0  0  0  0  0  0  0  0  0  0  0  0
    0.3042    1.9106   -0.4147 H   0  0  0  0  0  0  0  0  0  0  0  0
    1.8583   -2.7587   -0.4926 H   0  0  0  0  0  0  0  0  0  0  0  0
    2.5054    1.3832   -1.2723 H   0  0  0  0  0  0  0  0  0  0  0  0
   -2.6851    1.3547   -1.4487 H   0  0  0  0  0  0  0  0  0  0  0  0
   -1.1468    2.1109    2.4293 H   0  0  0  0  0  0  0  0  0  0  0  0
   -3.4687    3.6400   -1.6369 H   0  0  0  0  0  0  0  0  0  0  0  0
   -1.9309    4.4712    2.2902 H   0  0  0  0  0  0  0  0  0  0  0  0
  1 12  2  0
  2 15  1  0
  3 15  1  0
  4  5  1  0
  4 19  1  0
  5  6  1  0
  5  7  2  0
  5  8  2  0
  9 25  1  0
 10 11  1  0
 10 12  1  0
 10 20  1  0
 11 13  2  0
 11 14  1  0
 12 15  1  0
 13 16  1  0
 13 17  1  0
 14 18  2  0
 15 17  1  0
 16 19  2  0
 18 19  1  0
 20 21  2  0
 20 22  1  0
 21 23  1  0
 22 24  2  0
 23 25  2  0
 24 25  1  0
  2 26  1  0
  2 27  1  0
  2 28  1  0
  3 29  1  0
  3 30  1  0
  3 31  1  0
  4 32  1  0
  6 33  1  0
  6 34  1  0
  6 35  1  0
 14 36  1  0
 16 37  1  0
 18 38  1  0
 21 39  1  0
 22 40  1  0
 23 41  1  0
 24 42  1  0
M  END
>  <Mol_ID>  (1) 
6908

>  <Formula>  (1) 
C17H17FN2O4S

>  <MolWeight>  (1) 
364.3912832

>  <Cat>  (1) 
E1239

>  <Name>  (1) 
Apararenone

>  <Synonyms>  (1) 
MT-3995

>  <Target>  (1) 
Mineralocorticoid Receptor

>  <Form>  (1) 
Free base

>  <CAS>  (1) 
945966-46-1

>  <URL>  (1) 
https://www.selleckchem.com/products/apararenone.html

$$$$
