Arecaidine
     RDKit          3D

 21 21  0  0  0  0  0  0  0  0999 V2000
    2.5803   -0.2064   -0.2035 C   0  0  0  0  0  0  0  0  0  0  0  0
    3.2028    1.0178    0.0107 O   0  0  0  0  0  0  0  0  0  0  0  0
    3.3593   -1.1872   -0.4574 O   0  0  0  0  0  0  0  0  0  0  0  0
   -1.8031    1.7524   -0.0237 C   0  0  0  0  0  0  0  0  0  0  0  0
    1.1352   -0.3862   -0.1477 C   0  0  0  0  0  0  0  0  0  0  0  0
    0.3132    0.8092    0.1535 C   0  0  0  0  0  0  0  0  0  0  0  0
    0.6392   -1.5876   -0.3653 C   0  0  0  0  0  0  0  0  0  0  0  0
   -1.0694    0.5552    0.3480 N   0  0  0  0  0  0  0  0  0  0  0  0
   -0.8066   -1.8108   -0.3185 C   0  0  0  0  0  0  0  0  0  0  0  0
   -1.6315   -0.5815   -0.2854 C   0  0  0  0  0  0  0  0  0  0  0  0
    4.1432    0.9976    0.3959 H   0  0  0  0  0  0  0  0  0  0  0  0
   -1.5278    2.0231   -1.0773 H   0  0  0  0  0  0  0  0  0  0  0  0
   -1.3817    2.5835    0.5890 H   0  0  0  0  0  0  0  0  0  0  0  0
   -2.8955    1.6498    0.0934 H   0  0  0  0  0  0  0  0  0  0  0  0
    0.6892    1.2517    1.1121 H   0  0  0  0  0  0  0  0  0  0  0  0
    0.4516    1.6163   -0.5959 H   0  0  0  0  0  0  0  0  0  0  0  0
    1.2772   -2.4393   -0.5833 H   0  0  0  0  0  0  0  0  0  0  0  0
   -1.0825   -2.4081   -1.2279 H   0  0  0  0  0  0  0  0  0  0  0  0
   -1.0423   -2.4862    0.5490 H   0  0  0  0  0  0  0  0  0  0  0  0
   -1.9810   -0.3144   -1.3076 H   0  0  0  0  0  0  0  0  0  0  0  0
   -2.5702   -0.8489    0.2823 H   0  0  0  0  0  0  0  0  0  0  0  0
  1  2  1  0
  1  3  2  0
  1  5  1  0
  4  8  1  0
  5  6  1  0
  5  7  2  0
  6  8  1  0
  7  9  1  0
  8 10  1  0
  9 10  1  0
  2 11  1  0
  4 12  1  0
  4 13  1  0
  4 14  1  0
  6 15  1  0
  6 16  1  0
  7 17  1  0
  9 18  1  0
  9 19  1  0
 10 20  1  0
 10 21  1  0
M  END
>  <Mol_ID>  (1) 
9973

>  <Formula>  (1) 
C7H11NO2

>  <MolWeight>  (1) 
141.16774

>  <Cat>  (1) 
E5300

>  <Name>  (1) 
Arecaidine

>  <Synonyms>  (1) 
NA

>  <Target>  (1) 
GABA uptake, L-[3H]proline uptake

>  <Form>  (1) 
Free Base

>  <CAS>  (1) 
499-04-7

>  <URL>  (1) 
https://www.selleckchem.com/products/arecaidine.html

$$$$
