Caudatin
     RDKit          3D

 77 80  0  0  0  0  0  0  0  0999 V2000
   -3.5330   -0.2041   -3.6263 C   0  0  0  0  0  0  0  0  0  0  0  0
   -4.1457    1.1572   -3.6426 C   0  0  1  0  0  0  0  0  0  0  0  0
   -3.9128    1.9619   -2.3956 C   0  0  0  0  0  0  0  0  0  0  0  0
   -3.2473    1.0668   -1.3965 C   0  0  0  0  0  0  0  0  0  0  0  0
   -1.9517    0.4741   -1.7774 C   0  0  2  0  0  0  0  0  0  0  0  0
   -2.1333   -0.2366   -3.1027 C   0  0  0  0  0  0  0  0  0  0  0  0
   -3.8332    0.8435   -0.2309 C   0  0  0  0  0  0  0  0  0  0  0  0
   -3.2823   -0.0189    0.8403 C   0  0  0  0  0  0  0  0  0  0  0  0
   -1.7421    0.0332    0.6483 C   0  0  2  0  0  0  0  0  0  0  0  0
   -1.5264   -0.5529   -0.6977 C   0  0  2  0  0  0  0  0  0  0  0  0
   -1.0388   -0.5465    1.8080 C   0  0  2  0  0  0  0  0  0  0  0  0
    0.0916   -1.4829    1.4720 C   0  0  2  0  0  0  0  0  0  0  0  0
    0.7351   -1.1523    0.1578 C   0  0  1  0  0  0  0  0  0  0  0  0
   -0.1453   -0.9425   -0.9955 C   0  0  0  0  0  0  0  0  0  0  0  0
   -3.7329    1.9222   -4.7356 O   0  0  0  0  0  0  0  0  0  0  0  0
   -0.9421    1.5406   -2.0003 C   0  0  0  0  0  0  0  0  0  0  0  0
   -1.5227    1.4167    0.5554 O   0  0  0  0  0  0  0  0  0  0  0  0
   -1.8315   -1.3814    2.7555 C   0  0  0  0  0  0  0  0  0  0  0  0
   -1.7487   -2.8153    2.3494 C   0  0  0  0  0  0  0  0  0  0  0  0
   -0.4628   -2.8829    1.5194 C   0  0  2  0  0  0  0  0  0  0  0  0
   -0.4884    0.5045    2.5562 O   0  0  0  0  0  0  0  0  0  0  0  0
    1.1120   -1.3652    2.5823 C   0  0  0  0  0  0  0  0  0  0  0  0
    1.7574   -0.1631    0.3095 O   0  0  0  0  0  0  0  0  0  0  0  0
    3.0980   -0.4264    0.1867 C   0  0  0  0  0  0  0  0  0  0  0  0
    4.1508    0.5731    0.3400 C   0  0  0  0  0  0  0  0  0  0  0  0
    3.9101    1.8456    0.6162 C   0  0  0  0  0  0  0  0  0  0  0  0
    5.0292    2.8289    0.7626 C   0  0  0  0  0  0  0  0  0  0  0  0
    2.4930    2.2628    0.7775 C   0  0  0  0  0  0  0  0  0  0  0  0
    4.8429    4.0351   -0.1127 C   0  0  0  0  0  0  0  0  0  0  0  0
    6.3349    2.1357    0.5525 C   0  0  0  0  0  0  0  0  0  0  0  0
    3.4428   -1.6070   -0.0750 O   0  0  0  0  0  0  0  0  0  0  0  0
    0.4343   -3.8907    2.1304 C   0  0  0  0  0  0  0  0  0  0  0  0
    0.9554   -5.0796    1.3504 C   0  0  0  0  0  0  0  0  0  0  0  0
   -0.7474   -3.3601    0.2330 O   0  0  0  0  0  0  0  0  0  0  0  0
    0.8232   -3.8492    3.2937 O   0  0  0  0  0  0  0  0  0  0  0  0
   -3.4645   -0.5253   -4.7013 H   0  0  0  0  0  0  0  0  0  0  0  0
   -4.1445   -0.9644   -3.1190 H   0  0  0  0  0  0  0  0  0  0  0  0
   -5.2403    1.0165   -3.7571 H   0  0  0  0  0  0  0  0  0  0  0  0
   -4.8859    2.3046   -1.9596 H   0  0  0  0  0  0  0  0  0  0  0  0
   -3.3506    2.8809   -2.5980 H   0  0  0  0  0  0  0  0  0  0  0  0
   -1.4572    0.1352   -3.8937 H   0  0  0  0  0  0  0  0  0  0  0  0
   -1.8666   -1.3004   -2.9569 H   0  0  0  0  0  0  0  0  0  0  0  0
   -4.8026    1.3364   -0.0462 H   0  0  0  0  0  0  0  0  0  0  0  0
   -3.6784   -1.0235    0.6980 H   0  0  0  0  0  0  0  0  0  0  0  0
   -3.5495    0.4731    1.7979 H   0  0  0  0  0  0  0  0  0  0  0  0
   -2.2754   -1.3868   -0.9099 H   0  0  0  0  0  0  0  0  0  0  0  0
    1.3610   -2.0724   -0.0660 H   0  0  0  0  0  0  0  0  0  0  0  0
    0.2732   -0.2501   -1.7690 H   0  0  0  0  0  0  0  0  0  0  0  0
   -0.2095   -1.9554   -1.5416 H   0  0  0  0  0  0  0  0  0  0  0  0
   -3.8635    2.8718   -4.4872 H   0  0  0  0  0  0  0  0  0  0  0  0
   -1.4695    2.5299   -1.9579 H   0  0  0  0  0  0  0  0  0  0  0  0
   -0.5153    1.5435   -3.0501 H   0  0  0  0  0  0  0  0  0  0  0  0
   -0.1389    1.6285   -1.2513 H   0  0  0  0  0  0  0  0  0  0  0  0
   -2.0954    1.9151    1.1931 H   0  0  0  0  0  0  0  0  0  0  0  0
   -2.8557   -1.0338    2.9707 H   0  0  0  0  0  0  0  0  0  0  0  0
   -1.3196   -1.3372    3.7641 H   0  0  0  0  0  0  0  0  0  0  0  0
   -2.6241   -3.1662    1.7686 H   0  0  0  0  0  0  0  0  0  0  0  0
   -1.6847   -3.4917    3.2267 H   0  0  0  0  0  0  0  0  0  0  0  0
   -0.3116    1.3088    2.0427 H   0  0  0  0  0  0  0  0  0  0  0  0
    1.9434   -2.0607    2.4022 H   0  0  0  0  0  0  0  0  0  0  0  0
    0.6994   -1.5871    3.5871 H   0  0  0  0  0  0  0  0  0  0  0  0
    1.4738   -0.3064    2.6820 H   0  0  0  0  0  0  0  0  0  0  0  0
    5.1917    0.3001    0.2303 H   0  0  0  0  0  0  0  0  0  0  0  0
    4.9904    3.1536    1.8271 H   0  0  0  0  0  0  0  0  0  0  0  0
    2.4959    3.3780    0.9235 H   0  0  0  0  0  0  0  0  0  0  0  0
    2.0011    1.8151    1.6574 H   0  0  0  0  0  0  0  0  0  0  0  0
    1.9418    2.1198   -0.1760 H   0  0  0  0  0  0  0  0  0  0  0  0
    4.0241    4.6610    0.3490 H   0  0  0  0  0  0  0  0  0  0  0  0
    5.7498    4.6396   -0.0706 H   0  0  0  0  0  0  0  0  0  0  0  0
    4.6265    3.7745   -1.1629 H   0  0  0  0  0  0  0  0  0  0  0  0
    6.4773    1.7200   -0.4552 H   0  0  0  0  0  0  0  0  0  0  0  0
    7.1410    2.8935    0.7217 H   0  0  0  0  0  0  0  0  0  0  0  0
    6.4793    1.3928    1.3649 H   0  0  0  0  0  0  0  0  0  0  0  0
    1.0705   -5.9456    2.0149 H   0  0  0  0  0  0  0  0  0  0  0  0
    1.8822   -4.7339    0.8621 H   0  0  0  0  0  0  0  0  0  0  0  0
    0.2103   -5.2590    0.5484 H   0  0  0  0  0  0  0  0  0  0  0  0
   -1.4718   -4.0366    0.2886 H   0  0  0  0  0  0  0  0  0  0  0  0
  1  2  1  0
  2  3  1  0
  2 15  1  0
  3  4  1  0
  4  5  1  0
  4  7  2  0
  5  6  1  0
  5 16  1  6
  6  1  1  0
  7  8  1  0
  8  9  1  0
  9 10  1  0
  9 11  1  0
  9 17  1  6
 10  5  1  0
 10 14  1  0
 11 12  1  0
 11 18  1  0
 11 21  1  1
 12 13  1  0
 12 22  1  1
 13 14  1  0
 13 23  1  0
 18 19  1  0
 20 12  1  0
 20 19  1  0
 20 32  1  0
 20 34  1  6
 23 24  1  0
 24 25  1  0
 24 31  2  0
 25 26  2  0
 26 27  1  0
 26 28  1  0
 27 29  1  0
 27 30  1  0
 32 33  1  0
 32 35  2  0
  1 36  1  0
  1 37  1  0
  2 38  1  6
  3 39  1  0
  3 40  1  0
  6 41  1  0
  6 42  1  0
  7 43  1  0
  8 44  1  0
  8 45  1  0
 10 46  1  1
 13 47  1  6
 14 48  1  0
 14 49  1  0
 15 50  1  0
 16 51  1  0
 16 52  1  0
 16 53  1  0
 17 54  1  0
 18 55  1  0
 18 56  1  0
 19 57  1  0
 19 58  1  0
 21 59  1  0
 22 60  1  0
 22 61  1  0
 22 62  1  0
 25 63  1  0
 27 64  1  0
 28 65  1  0
 28 66  1  0
 28 67  1  0
 29 68  1  0
 29 69  1  0
 29 70  1  0
 30 71  1  0
 30 72  1  0
 30 73  1  0
 33 74  1  0
 33 75  1  0
 33 76  1  0
 34 77  1  0
M  END
>  <Mol_ID>  (1) 
5146

>  <Formula>  (1) 
C28H42O7

>  <MolWeight>  (1) 
490.62888

>  <Cat>  (1) 
S3271

>  <Name>  (1) 
Caudatin

>  <Synonyms>  (1) 
Cauldatin

>  <Target>  (1) 
Apoptosis related

>  <Form>  (1) 
free base

>  <CAS>  (1) 
38395-02-7

>  <URL>  (1) 
http://www.selleckchem.com/products/caudatin.html

$$$$
