Diltiazem HCl.cdx
     RDKit          3D

 55 57  0  0  0  0  0  0  0  0999 V2000
   -1.7591   -1.4846   -0.5049 C   0  0  0  0  0  0  0  0  0  0  0  0
   -1.7883   -0.0471   -0.6257 N   0  0  0  0  0  0  0  0  0  0  0  0
   -0.6843    0.7539   -1.0758 C   0  0  0  0  0  0  0  0  0  0  0  0
    0.7749    0.5000   -1.1474 C   0  0  1  0  0  0  0  0  0  0  0  0
    1.2086   -0.1730    0.0993 C   0  0  1  0  0  0  0  0  0  0  0  0
    1.0765   -1.9754   -0.2466 S   0  0  0  0  0  0  0  0  0  0  0  0
   -0.6682   -2.3402   -0.3540 C   0  0  0  0  0  0  0  0  0  0  0  0
    0.8821   -0.3586   -2.2948 O   0  0  0  0  0  0  0  0  0  0  0  0
    2.4868    0.1983    0.6799 C   0  0  0  0  0  0  0  0  0  0  0  0
    2.5306    0.6310    2.0032 C   0  0  0  0  0  0  0  0  0  0  0  0
    3.6975    1.0022    2.6275 C   0  0  0  0  0  0  0  0  0  0  0  0
    4.8849    0.9498    1.9278 C   0  0  0  0  0  0  0  0  0  0  0  0
    4.8718    0.5257    0.6180 C   0  0  0  0  0  0  0  0  0  0  0  0
    3.6851    0.1471   -0.0206 C   0  0  0  0  0  0  0  0  0  0  0  0
    6.0303    1.3353    2.6052 O   0  0  0  0  0  0  0  0  0  0  0  0
    7.2876    1.3144    1.9704 C   0  0  0  0  0  0  0  0  0  0  0  0
    1.4958   -0.0306   -3.4653 C   0  0  0  0  0  0  0  0  0  0  0  0
    1.5540   -0.9982   -4.6036 C   0  0  0  0  0  0  0  0  0  0  0  0
    2.0497    1.0912   -3.6720 O   0  0  0  0  0  0  0  0  0  0  0  0
   -1.0816    1.8869   -1.4813 O   0  0  0  0  0  0  0  0  0  0  0  0
   -3.0042    0.5914   -0.2437 C   0  0  0  0  0  0  0  0  0  0  0  0
   -3.0691    0.9341    1.2303 C   0  0  0  0  0  0  0  0  0  0  0  0
   -4.2765    1.5729    1.6420 N   0  0  0  0  0  0  0  0  0  0  0  0
   -4.4945    2.8944    1.1575 C   0  0  0  0  0  0  0  0  0  0  0  0
   -5.4302    0.7328    1.4045 C   0  0  0  0  0  0  0  0  0  0  0  0
   -0.8337   -3.7160   -0.2495 C   0  0  0  0  0  0  0  0  0  0  0  0
   -2.0812   -4.2678   -0.2922 C   0  0  0  0  0  0  0  0  0  0  0  0
   -3.1572   -3.4331   -0.4399 C   0  0  0  0  0  0  0  0  0  0  0  0
   -2.9888   -2.0592   -0.5442 C   0  0  0  0  0  0  0  0  0  0  0  0
    1.2576    1.4728   -1.3411 H   0  0  0  0  0  0  0  0  0  0  0  0
    0.4274   -0.0307    0.9056 H   0  0  0  0  0  0  0  0  0  0  0  0
    1.6142    0.6925    2.6107 H   0  0  0  0  0  0  0  0  0  0  0  0
    3.6779    1.3300    3.6528 H   0  0  0  0  0  0  0  0  0  0  0  0
    5.7975    0.4841    0.0723 H   0  0  0  0  0  0  0  0  0  0  0  0
    3.6949   -0.1837   -1.0532 H   0  0  0  0  0  0  0  0  0  0  0  0
    7.3262    2.1875    1.2572 H   0  0  0  0  0  0  0  0  0  0  0  0
    7.3762    0.3767    1.3601 H   0  0  0  0  0  0  0  0  0  0  0  0
    8.1219    1.4448    2.6638 H   0  0  0  0  0  0  0  0  0  0  0  0
    0.7373   -0.8462   -5.3279 H   0  0  0  0  0  0  0  0  0  0  0  0
    1.4178   -2.0178   -4.1892 H   0  0  0  0  0  0  0  0  0  0  0  0
    2.5644   -0.9643   -5.0813 H   0  0  0  0  0  0  0  0  0  0  0  0
   -2.8564    1.6592   -0.6820 H   0  0  0  0  0  0  0  0  0  0  0  0
   -3.9328    0.3490   -0.7299 H   0  0  0  0  0  0  0  0  0  0  0  0
   -2.2425    1.6523    1.5065 H   0  0  0  0  0  0  0  0  0  0  0  0
   -2.8834    0.0652    1.8986 H   0  0  0  0  0  0  0  0  0  0  0  0
   -5.6058    3.0160    1.0086 H   0  0  0  0  0  0  0  0  0  0  0  0
   -4.0393    3.0703    0.1737 H   0  0  0  0  0  0  0  0  0  0  0  0
   -4.2353    3.6748    1.9027 H   0  0  0  0  0  0  0  0  0  0  0  0
   -6.3116    1.1139    1.9875 H   0  0  0  0  0  0  0  0  0  0  0  0
   -5.6546    0.5957    0.3348 H   0  0  0  0  0  0  0  0  0  0  0  0
   -5.2396   -0.2922    1.8386 H   0  0  0  0  0  0  0  0  0  0  0  0
    0.0076   -4.3749   -0.1340 H   0  0  0  0  0  0  0  0  0  0  0  0
   -2.1983   -5.3420   -0.2098 H   0  0  0  0  0  0  0  0  0  0  0  0
   -4.1712   -3.8411   -0.4781 H   0  0  0  0  0  0  0  0  0  0  0  0
   -3.8494   -1.4694   -0.6513 H   0  0  0  0  0  0  0  0  0  0  0  0
  1  2  1  0
  2  3  1  0
  2 21  1  0
  3  4  1  0
  3 20  2  0
  4  5  1  0
  4  8  1  0
  5  6  1  0
  5  9  1  0
  6  7  1  0
  7  1  2  0
  7 26  1  0
  8 17  1  0
  9 10  2  0
 10 11  1  0
 11 12  2  0
 12 13  1  0
 12 15  1  0
 13 14  2  0
 14  9  1  0
 15 16  1  0
 17 18  1  0
 17 19  2  0
 21 22  1  0
 22 23  1  0
 23 24  1  0
 23 25  1  0
 26 27  2  0
 27 28  1  0
 28 29  2  0
 29  1  1  0
  4 30  1  6
  5 31  1  1
 10 32  1  0
 11 33  1  0
 13 34  1  0
 14 35  1  0
 16 36  1  0
 16 37  1  0
 16 38  1  0
 18 39  1  0
 18 40  1  0
 18 41  1  0
 21 42  1  0
 21 43  1  0
 22 44  1  0
 22 45  1  0
 24 46  1  0
 24 47  1  0
 24 48  1  0
 25 49  1  0
 25 50  1  0
 25 51  1  0
 26 52  1  0
 27 53  1  0
 28 54  1  0
 29 55  1  0
M  END
>  <Mol_ID>  (1) 
163

>  <Formula>  (1) 
C22H27ClN2O4S

>  <MolWeight>  (1) 
450.97878

>  <Cat>  (1) 
S1865

>  <Name>  (1) 
Diltiazem HCl

>  <Synonyms>  (1) 
RG 83606 HCl

>  <Target>  (1) 
Calcium Channel

>  <Form>  (1) 
Hydrochloride

>  <CAS>  (1) 
33286-22-5

>  <URL>  (1) 
http://selleckchem.com/products/Diltiazem-HCl(Tiazac).html

$$$$
