Gitogenin
     RDKit          3D

 75 80  0  0  1  0  0  0  0  0999 V2000
   -3.6840   -1.8316   -1.8085 C   0  0  0  0  0  0  0  0  0  0  0  0
   -0.6577   -1.1369    1.1753 C   0  0  0  0  0  0  0  0  0  0  0  0
   -7.5096    1.3855    0.1327 C   0  0  0  0  0  0  0  0  0  0  0  0
    4.2241   -1.8094    0.8620 C   0  0  0  0  0  0  0  0  0  0  0  0
    5.4049    1.7173   -1.7246 O   0  0  0  0  0  0  0  0  0  0  0  0
    7.1552    1.7272   -0.0014 O   0  0  0  0  0  0  0  0  0  0  0  0
   -3.8784   -0.4201    0.1647 C   0  0  2  0  0  0  0  0  0  0  0  0
   -2.9688   -1.3766   -0.5414 C   0  0  2  0  0  0  0  0  0  0  0  0
   -2.9856    0.4830    0.7571 O   0  0  0  0  0  0  0  0  0  0  0  0
   -4.8059   -1.0599    1.1504 C   0  0  0  0  0  0  0  0  0  0  0  0
   -4.6387    0.3338   -0.7351 O   0  0  0  0  0  0  0  0  0  0  0  0
   -1.8171   -0.5214   -0.9511 C   0  0  1  0  0  0  0  0  0  0  0  0
   -2.1881    0.8228   -0.3201 C   0  0  2  0  0  0  0  0  0  0  0  0
   -6.1948   -0.4763    1.1423 C   0  0  0  0  0  0  0  0  0  0  0  0
   -5.0835    1.4541   -0.0224 C   0  0  0  0  0  0  0  0  0  0  0  0
   -0.5161   -0.8171   -0.2785 C   0  0  1  0  0  0  0  0  0  0  0  0
   -0.8682    1.4490    0.1141 C   0  0  0  0  0  0  0  0  0  0  0  0
   -6.2217    0.9968    0.8481 C   0  0  1  0  0  0  0  0  0  0  0  0
    0.1260    0.5462   -0.5274 C   0  0  1  0  0  0  0  0  0  0  0  0
    0.3378   -1.7909   -1.0367 C   0  0  0  0  0  0  0  0  0  0  0  0
    1.5217    0.6498   -0.0949 C   0  0  2  0  0  0  0  0  0  0  0  0
    1.7673   -1.7843   -0.6692 C   0  0  0  0  0  0  0  0  0  0  0  0
    2.1962   -0.6613    0.2150 C   0  0  1  0  0  0  0  0  0  0  0  0
    1.7773    1.5516    1.0953 C   0  0  0  0  0  0  0  0  0  0  0  0
    3.6919   -0.5089    0.2397 C   0  0  1  0  0  0  0  0  0  0  0  0
    3.2808    1.8446    1.0524 C   0  0  0  0  0  0  0  0  0  0  0  0
    4.0401    0.5664    1.2325 C   0  0  2  0  0  0  0  0  0  0  0  0
    4.3297   -0.3560   -1.0926 C   0  0  0  0  0  0  0  0  0  0  0  0
    5.5083    0.8262    1.3697 C   0  0  0  0  0  0  0  0  0  0  0  0
    5.5812    0.4541   -1.1340 C   0  0  2  0  0  0  0  0  0  0  0  0
    6.3175    0.6045    0.1439 C   0  0  1  0  0  0  0  0  0  0  0  0
   -2.9813   -2.4062   -2.4562 H   0  0  0  0  0  0  0  0  0  0  0  0
   -4.4616   -2.5509   -1.4787 H   0  0  0  0  0  0  0  0  0  0  0  0
   -4.1793   -1.0011   -2.3310 H   0  0  0  0  0  0  0  0  0  0  0  0
   -1.7124   -1.3310    1.5010 H   0  0  0  0  0  0  0  0  0  0  0  0
   -0.1504   -2.1161    1.3829 H   0  0  0  0  0  0  0  0  0  0  0  0
   -0.3212   -0.3292    1.8525 H   0  0  0  0  0  0  0  0  0  0  0  0
   -7.9383    2.3311    0.5376 H   0  0  0  0  0  0  0  0  0  0  0  0
   -7.3420    1.5602   -0.9537 H   0  0  0  0  0  0  0  0  0  0  0  0
   -8.3007    0.6153    0.2607 H   0  0  0  0  0  0  0  0  0  0  0  0
    3.9872   -2.6889    0.2428 H   0  0  0  0  0  0  0  0  0  0  0  0
    5.3323   -1.7915    0.9602 H   0  0  0  0  0  0  0  0  0  0  0  0
    3.8396   -1.9505    1.8974 H   0  0  0  0  0  0  0  0  0  0  0  0
    5.6001    2.4433   -1.0634 H   0  0  0  0  0  0  0  0  0  0  0  0
    7.6428    1.7259   -0.8506 H   0  0  0  0  0  0  0  0  0  0  0  0
   -2.7242   -2.2873    0.0085 H   0  0  0  0  0  0  0  0  0  0  0  0
   -4.9074   -2.1352    0.8698 H   0  0  0  0  0  0  0  0  0  0  0  0
   -4.3987   -1.0694    2.1929 H   0  0  0  0  0  0  0  0  0  0  0  0
   -1.6650   -0.4325   -2.0349 H   0  0  0  0  0  0  0  0  0  0  0  0
   -2.7057    1.4131   -1.0884 H   0  0  0  0  0  0  0  0  0  0  0  0
   -6.8801   -0.9749    0.4406 H   0  0  0  0  0  0  0  0  0  0  0  0
   -6.6275   -0.6032    2.1671 H   0  0  0  0  0  0  0  0  0  0  0  0
   -4.3091    1.8762    0.6432 H   0  0  0  0  0  0  0  0  0  0  0  0
   -5.3767    2.2200   -0.7620 H   0  0  0  0  0  0  0  0  0  0  0  0
   -0.8370    2.4610   -0.3447 H   0  0  0  0  0  0  0  0  0  0  0  0
   -0.7822    1.5490    1.2030 H   0  0  0  0  0  0  0  0  0  0  0  0
   -6.2233    1.5893    1.7995 H   0  0  0  0  0  0  0  0  0  0  0  0
    0.0083    0.6913   -1.6367 H   0  0  0  0  0  0  0  0  0  0  0  0
    0.2533   -1.5116   -2.1195 H   0  0  0  0  0  0  0  0  0  0  0  0
   -0.1090   -2.8227   -0.9858 H   0  0  0  0  0  0  0  0  0  0  0  0
    2.1101    1.1109   -0.9353 H   0  0  0  0  0  0  0  0  0  0  0  0
    1.9810   -2.7401   -0.1235 H   0  0  0  0  0  0  0  0  0  0  0  0
    2.4192   -1.8334   -1.5818 H   0  0  0  0  0  0  0  0  0  0  0  0
    1.9312   -0.9242    1.2706 H   0  0  0  0  0  0  0  0  0  0  0  0
    1.2463    2.5083    1.0018 H   0  0  0  0  0  0  0  0  0  0  0  0
    1.6318    1.0504    2.0671 H   0  0  0  0  0  0  0  0  0  0  0  0
    3.5889    2.5276    1.8499 H   0  0  0  0  0  0  0  0  0  0  0  0
    3.4427    2.3524    0.0954 H   0  0  0  0  0  0  0  0  0  0  0  0
    3.6887    0.1719    2.2255 H   0  0  0  0  0  0  0  0  0  0  0  0
    4.4902   -1.3897   -1.5065 H   0  0  0  0  0  0  0  0  0  0  0  0
    3.6364    0.1021   -1.8379 H   0  0  0  0  0  0  0  0  0  0  0  0
    5.6064    1.8646    1.7806 H   0  0  0  0  0  0  0  0  0  0  0  0
    5.9430    0.1769    2.1808 H   0  0  0  0  0  0  0  0  0  0  0  0
    6.2762   -0.0589   -1.8573 H   0  0  0  0  0  0  0  0  0  0  0  0
    7.0361   -0.2545    0.2565 H   0  0  0  0  0  0  0  0  0  0  0  0
  7  8  1  0
  7  9  1  1
  7 10  1  0
  7 11  1  0
  8  1  1  0
  8 12  1  0
  9 13  1  0
 10 14  1  0
 11 15  1  0
 12 13  1  0
 12 16  1  0
 13 17  1  0
 14 18  1  0
 15 18  1  0
 16  2  1  1
 16 19  1  0
 16 20  1  0
 18  3  1  0
 19 17  1  0
 19 21  1  0
 20 22  1  0
 21 23  1  0
 21 24  1  0
 23 22  1  0
 23 25  1  0
 24 26  1  0
 25  4  1  1
 25 27  1  0
 25 28  1  0
 27 26  1  0
 27 29  1  0
 28 30  1  0
 29 31  1  0
 30  5  1  0
 30 31  1  0
 31  6  1  0
  1 32  1  0
  1 33  1  0
  1 34  1  0
  2 35  1  0
  2 36  1  0
  2 37  1  0
  3 38  1  0
  3 39  1  0
  3 40  1  0
  4 41  1  0
  4 42  1  0
  4 43  1  0
  5 44  1  0
  6 45  1  0
  8 46  1  1
 10 47  1  0
 10 48  1  0
 12 49  1  6
 13 50  1  6
 14 51  1  0
 14 52  1  0
 15 53  1  0
 15 54  1  0
 17 55  1  0
 17 56  1  0
 18 57  1  1
 19 58  1  6
 20 59  1  0
 20 60  1  0
 21 61  1  6
 22 62  1  0
 22 63  1  0
 23 64  1  1
 24 65  1  0
 24 66  1  0
 26 67  1  0
 26 68  1  0
 27 69  1  1
 28 70  1  0
 28 71  1  0
 29 72  1  0
 29 73  1  0
 30 74  1  6
 31 75  1  1
M  END
>  <Mol_ID>  (1) 
9889

>  <Formula>  (1) 
C27H44O4

>  <MolWeight>  (1) 
432.63586

>  <Cat>  (1) 
E2797

>  <Name>  (1) 
Gitogenin

>  <Synonyms>  (1) 
N/A

>  <Target>  (1) 
Transferase,  Carbohydrate Metabolism

>  <Form>  (1) 
free base

>  <CAS>  (1) 
511-96-6

>  <URL>  (1) 
https://www.selleckchem.com/products/gitogenin.html

$$$$
