HC 030031.cdx
     RDKit          3D

 47 49  0  0  0  0  0  0  0  0999 V2000
   -3.0468   -0.7762   -0.8022 C   0  0  0  0  0  0  0  0  0  0  0  0
   -3.5517    0.3598   -1.4186 C   0  0  0  0  0  0  0  0  0  0  0  0
   -2.2818   -1.4670   -1.6859 N   0  0  0  0  0  0  0  0  0  0  0  0
   -3.3781   -1.0122    0.5244 C   0  0  0  0  0  0  0  0  0  0  0  0
   -4.3402    1.1843   -0.7062 N   0  0  0  0  0  0  0  0  0  0  0  0
   -3.0813    0.3342   -2.6661 N   0  0  0  0  0  0  0  0  0  0  0  0
   -2.3089   -0.7798   -2.8236 C   0  0  0  0  0  0  0  0  0  0  0  0
   -1.6162   -2.6929   -1.3527 C   0  0  0  0  0  0  0  0  0  0  0  0
   -4.1670   -0.1603    1.1894 N   0  0  0  0  0  0  0  0  0  0  0  0
   -2.9381   -2.0373    1.1233 O   0  0  0  0  0  0  0  0  0  0  0  0
   -4.6430    0.9238    0.5853 C   0  0  0  0  0  0  0  0  0  0  0  0
   -4.8821    2.3808   -1.3277 C   0  0  0  0  0  0  0  0  0  0  0  0
   -0.2367   -2.4576   -0.8149 C   0  0  0  0  0  0  0  0  0  0  0  0
   -4.4829   -0.4512    2.5707 C   0  0  0  0  0  0  0  0  0  0  0  0
   -5.3865    1.6934    1.2709 O   0  0  0  0  0  0  0  0  0  0  0  0
    0.2653   -1.1522   -0.6864 N   0  0  0  0  0  0  0  0  0  0  0  0
    0.4142   -3.4740   -0.4990 O   0  0  0  0  0  0  0  0  0  0  0  0
    1.5381   -0.7896   -0.1981 C   0  0  0  0  0  0  0  0  0  0  0  0
    2.5085   -1.6309    0.2356 C   0  0  0  0  0  0  0  0  0  0  0  0
    1.8350    0.5769   -0.1548 C   0  0  0  0  0  0  0  0  0  0  0  0
    3.7541   -1.1967    0.7090 C   0  0  0  0  0  0  0  0  0  0  0  0
    3.0543    1.0080    0.3083 C   0  0  0  0  0  0  0  0  0  0  0  0
    4.0360    0.1465    0.7476 C   0  0  0  0  0  0  0  0  0  0  0  0
    5.3343    0.6795    1.2367 C   0  0  0  0  0  0  0  0  0  0  0  0
    5.0665    1.6335    2.3767 C   0  0  0  0  0  0  0  0  0  0  0  0
    6.0288    1.4550    0.1384 C   0  0  0  0  0  0  0  0  0  0  0  0
   -1.7870   -1.0677   -3.7499 H   0  0  0  0  0  0  0  0  0  0  0  0
   -2.1299   -3.3387   -0.6437 H   0  0  0  0  0  0  0  0  0  0  0  0
   -1.4830   -3.2517   -2.3152 H   0  0  0  0  0  0  0  0  0  0  0  0
   -5.8625    2.1573   -1.8323 H   0  0  0  0  0  0  0  0  0  0  0  0
   -5.0714    3.1339   -0.5445 H   0  0  0  0  0  0  0  0  0  0  0  0
   -4.1611    2.8203   -2.0332 H   0  0  0  0  0  0  0  0  0  0  0  0
   -4.6337    0.5061    3.1065 H   0  0  0  0  0  0  0  0  0  0  0  0
   -5.3177   -1.1512    2.6837 H   0  0  0  0  0  0  0  0  0  0  0  0
   -3.6044   -0.9292    3.0905 H   0  0  0  0  0  0  0  0  0  0  0  0
   -0.3977   -0.3766   -0.9938 H   0  0  0  0  0  0  0  0  0  0  0  0
    2.3624   -2.6869    0.2353 H   0  0  0  0  0  0  0  0  0  0  0  0
    1.1218    1.3279   -0.4808 H   0  0  0  0  0  0  0  0  0  0  0  0
    4.5049   -1.8956    1.0472 H   0  0  0  0  0  0  0  0  0  0  0  0
    3.2558    2.0528    0.3313 H   0  0  0  0  0  0  0  0  0  0  0  0
    5.9867   -0.1634    1.5433 H   0  0  0  0  0  0  0  0  0  0  0  0
    4.0666    2.0830    2.2049 H   0  0  0  0  0  0  0  0  0  0  0  0
    5.1361    1.1344    3.3639 H   0  0  0  0  0  0  0  0  0  0  0  0
    5.7822    2.4821    2.3174 H   0  0  0  0  0  0  0  0  0  0  0  0
    5.7435    1.0872   -0.8718 H   0  0  0  0  0  0  0  0  0  0  0  0
    5.8676    2.5252    0.2740 H   0  0  0  0  0  0  0  0  0  0  0  0
    7.1270    1.2528    0.2099 H   0  0  0  0  0  0  0  0  0  0  0  0
  1  3  1  0
  1  4  1  0
  1  2  2  0
  2  5  1  0
  2  6  1  0
  3  7  1  0
  3  8  1  0
  4  9  1  0
  4 10  2  0
  5 11  1  0
  5 12  1  0
  6  7  2  0
  8 13  1  0
  9 14  1  0
  9 11  1  0
 11 15  2  0
 13 16  1  0
 13 17  2  0
 16 18  1  0
 18 19  2  0
 18 20  1  0
 19 21  1  0
 20 22  2  0
 21 23  2  0
 22 23  1  0
 23 24  1  0
 24 25  1  0
 24 26  1  0
  7 27  1  0
  8 28  1  0
  8 29  1  0
 12 30  1  0
 12 31  1  0
 12 32  1  0
 14 33  1  0
 14 34  1  0
 14 35  1  0
 16 36  1  0
 19 37  1  0
 20 38  1  0
 21 39  1  0
 22 40  1  0
 24 41  1  0
 25 42  1  0
 25 43  1  0
 25 44  1  0
 26 45  1  0
 26 46  1  0
 26 47  1  0
M  END
>  <Mol_ID>  (1) 
1093

>  <Formula>  (1) 
C18H21N5O3

>  <MolWeight>  (1) 
355.39104

>  <Cat>  (1) 
S2918

>  <Name>  (1) 
HC-030031

>  <Synonyms>  (1) 
TOSLAB 829227

>  <Target>  (1) 
TRP Channel

>  <Form>  (1) 
free base

>  <CAS>  (1) 
349085-38-7

>  <URL>  (1) 
http://selleckchem.com/products/hc-030031.html

$$$$
