INH1.cdx
     RDKit          3D

 38 40  0  0  0  0  0  0  0  0999 V2000
   -3.0009    0.3551    0.3854 C   0  0  0  0  0  0  0  0  0  0  0  0
   -2.1894    0.2688   -0.7726 N   0  0  0  0  0  0  0  0  0  0  0  0
   -0.8700    0.8132   -0.7983 C   0  0  0  0  0  0  0  0  0  0  0  0
   -0.7151    2.6563   -1.3729 S   0  0  0  0  0  0  0  0  0  0  0  0
    1.0798    2.5504   -1.1360 C   0  0  0  0  0  0  0  0  0  0  0  0
    1.3393    1.2454   -0.6874 C   0  0  0  0  0  0  0  0  0  0  0  0
    0.2106    0.5724   -0.5988 N   0  0  0  0  0  0  0  0  0  0  0  0
    2.6902    0.7885   -0.3879 C   0  0  0  0  0  0  0  0  0  0  0  0
    2.9462   -0.4929    0.0527 C   0  0  0  0  0  0  0  0  0  0  0  0
    4.2163   -0.9151    0.3318 C   0  0  0  0  0  0  0  0  0  0  0  0
    5.3001   -0.0769    0.1851 C   0  0  0  0  0  0  0  0  0  0  0  0
    5.0745    1.2166   -0.2559 C   0  0  0  0  0  0  0  0  0  0  0  0
    3.7808    1.6210   -0.5321 C   0  0  0  0  0  0  0  0  0  0  0  0
    1.7826   -1.4327    0.2230 C   0  0  0  0  0  0  0  0  0  0  0  0
    6.6832   -0.5459    0.4921 C   0  0  0  0  0  0  0  0  0  0  0  0
   -4.3491   -0.1876    0.4485 C   0  0  0  0  0  0  0  0  0  0  0  0
   -2.4736    0.9463    1.3886 O   0  0  0  0  0  0  0  0  0  0  0  0
   -4.9640   -0.8327   -0.6006 C   0  0  0  0  0  0  0  0  0  0  0  0
   -6.2554   -1.3360   -0.4956 C   0  0  0  0  0  0  0  0  0  0  0  0
   -6.9400   -1.1812    0.7030 C   0  0  0  0  0  0  0  0  0  0  0  0
   -6.3526   -0.5392    1.7750 C   0  0  0  0  0  0  0  0  0  0  0  0
   -5.0564   -0.0514    1.6226 C   0  0  0  0  0  0  0  0  0  0  0  0
   -2.5446   -0.1984   -1.6356 H   0  0  0  0  0  0  0  0  0  0  0  0
    1.8141    3.4179   -1.3316 H   0  0  0  0  0  0  0  0  0  0  0  0
    4.3656   -1.9364    0.6768 H   0  0  0  0  0  0  0  0  0  0  0  0
    5.8916    1.9151   -0.3879 H   0  0  0  0  0  0  0  0  0  0  0  0
    3.6500    2.6271   -0.8700 H   0  0  0  0  0  0  0  0  0  0  0  0
    1.1031   -0.9697    0.9791 H   0  0  0  0  0  0  0  0  0  0  0  0
    1.2800   -1.6236   -0.7464 H   0  0  0  0  0  0  0  0  0  0  0  0
    2.1266   -2.4058    0.6016 H   0  0  0  0  0  0  0  0  0  0  0  0
    7.3793    0.2987    0.3668 H   0  0  0  0  0  0  0  0  0  0  0  0
    6.6738   -0.8943    1.5432 H   0  0  0  0  0  0  0  0  0  0  0  0
    6.8833   -1.3888   -0.1993 H   0  0  0  0  0  0  0  0  0  0  0  0
   -4.4374   -0.9519   -1.5232 H   0  0  0  0  0  0  0  0  0  0  0  0
   -6.7325   -1.8353   -1.3063 H   0  0  0  0  0  0  0  0  0  0  0  0
   -7.9614   -1.5652    0.8242 H   0  0  0  0  0  0  0  0  0  0  0  0
   -6.8342   -0.3903    2.7267 H   0  0  0  0  0  0  0  0  0  0  0  0
   -4.5946    0.4585    2.4793 H   0  0  0  0  0  0  0  0  0  0  0  0
  1  2  1  0
  1 16  1  0
  1 17  2  0
  2  3  1  0
  3  4  1  0
  4  5  1  0
  5  6  2  0
  6  7  1  0
  6  8  1  0
  7  3  2  0
  8  9  2  0
  9 10  1  0
  9 14  1  0
 10 11  2  0
 11 12  1  0
 11 15  1  0
 12 13  2  0
 13  8  1  0
 16 18  2  0
 18 19  1  0
 19 20  2  0
 20 21  1  0
 21 22  2  0
 22 16  1  0
  2 23  1  0
  5 24  1  0
 10 25  1  0
 12 26  1  0
 13 27  1  0
 14 28  1  0
 14 29  1  0
 14 30  1  0
 15 31  1  0
 15 32  1  0
 15 33  1  0
 18 34  1  0
 19 35  1  0
 20 36  1  0
 21 37  1  0
 22 38  1  0
M  END
>  <Mol_ID>  (1) 
2420

>  <Formula>  (1) 
C18H16N2OS

>  <MolWeight>  (1) 
308.39744

>  <Cat>  (1) 
S7493

>  <Name>  (1) 
INH1

>  <Synonyms>  (1) 
IBT 13131

>  <Target>  (1) 
Microtubule Associated

>  <Form>  (1) 
free base

>  <CAS>  (1) 
313553-47-8

>  <URL>  (1) 
http://selleckchem.com/products/inh1.html

$$$$
