K-Ras(G12C) inhibitor 6.cdx
     RDKit          3D

 47 48  0  0  0  0  0  0  0  0999 V2000
    7.7215   -0.8255   -1.0094 C   0  0  0  0  0  0  0  0  0  0  0  0
    7.3382   -2.0802   -0.5368 C   0  0  0  0  0  0  0  0  0  0  0  0
    5.9994   -2.3665   -0.3611 C   0  0  0  0  0  0  0  0  0  0  0  0
    5.0408   -1.4133   -0.6523 C   0  0  0  0  0  0  0  0  0  0  0  0
    5.3858   -0.1648   -1.1203 C   0  0  0  0  0  0  0  0  0  0  0  0
    6.7483    0.0978   -1.2889 C   0  0  0  0  0  0  0  0  0  0  0  0
    4.5161    0.8366   -1.4326 O   0  0  0  0  0  0  0  0  0  0  0  0
    3.1282    0.8400   -1.3503 C   0  0  0  0  0  0  0  0  0  0  0  0
    2.5985    0.6268    0.0305 C   0  0  0  0  0  0  0  0  0  0  0  0
    1.1903    0.5757    0.2178 N   0  0  0  0  0  0  0  0  0  0  0  0
    3.3819    0.4916    1.0306 O   0  0  0  0  0  0  0  0  0  0  0  0
    0.2321    0.7172   -0.8579 C   0  0  0  0  0  0  0  0  0  0  0  0
   -1.0614    1.3689   -0.4245 C   0  0  0  0  0  0  0  0  0  0  0  0
   -1.6862    0.7451    0.7783 C   0  0  0  0  0  0  0  0  0  0  0  0
   -0.7472   -0.1776    1.5184 C   0  0  0  0  0  0  0  0  0  0  0  0
    0.6621    0.3698    1.5587 C   0  0  0  0  0  0  0  0  0  0  0  0
   -2.8241   -0.0556    0.3694 N   0  0  0  0  0  0  0  0  0  0  0  0
   -4.1089    0.2800    0.8893 C   0  0  0  0  0  0  0  0  0  0  0  0
   -5.2496   -0.5539    0.4548 C   0  0  0  0  0  0  0  0  0  0  0  0
   -4.1741    1.2475    1.6682 O   0  0  0  0  0  0  0  0  0  0  0  0
   -6.5764   -0.1380    1.0041 C   0  0  0  0  0  0  0  0  0  0  0  0
   -6.9095    1.2580    0.5678 C   0  0  0  0  0  0  0  0  0  0  0  0
   -6.9551    1.2612   -1.2621 S   0  0  0  0  0  0  0  0  0  0  0  0
    8.7753   -0.5736   -1.1573 H   0  0  0  0  0  0  0  0  0  0  0  0
    8.0884   -2.8299   -0.3074 H   0  0  0  0  0  0  0  0  0  0  0  0
    5.7364   -3.3475    0.0065 H   0  0  0  0  0  0  0  0  0  0  0  0
    4.0125   -1.6581   -0.5135 H   0  0  0  0  0  0  0  0  0  0  0  0
    7.0647    1.0646   -1.6542 H   0  0  0  0  0  0  0  0  0  0  0  0
    2.7745   -0.0450   -1.9477 H   0  0  0  0  0  0  0  0  0  0  0  0
    2.6583    1.7464   -1.7575 H   0  0  0  0  0  0  0  0  0  0  0  0
    0.6747    1.3238   -1.6688 H   0  0  0  0  0  0  0  0  0  0  0  0
    0.0495   -0.3007   -1.2535 H   0  0  0  0  0  0  0  0  0  0  0  0
   -0.8841    2.4685   -0.3279 H   0  0  0  0  0  0  0  0  0  0  0  0
   -1.7498    1.2599   -1.3116 H   0  0  0  0  0  0  0  0  0  0  0  0
   -1.9959    1.5495    1.4764 H   0  0  0  0  0  0  0  0  0  0  0  0
   -0.7681   -1.1956    1.1021 H   0  0  0  0  0  0  0  0  0  0  0  0
   -1.1265   -0.2230    2.5597 H   0  0  0  0  0  0  0  0  0  0  0  0
    1.2802   -0.4329    2.0370 H   0  0  0  0  0  0  0  0  0  0  0  0
    0.7183    1.2485    2.2039 H   0  0  0  0  0  0  0  0  0  0  0  0
   -2.6787   -0.8447   -0.2841 H   0  0  0  0  0  0  0  0  0  0  0  0
   -5.3108   -0.5095   -0.6637 H   0  0  0  0  0  0  0  0  0  0  0  0
   -5.0693   -1.6115    0.7852 H   0  0  0  0  0  0  0  0  0  0  0  0
   -7.3450   -0.8121    0.5830 H   0  0  0  0  0  0  0  0  0  0  0  0
   -6.6183   -0.2135    2.1097 H   0  0  0  0  0  0  0  0  0  0  0  0
   -7.9502    1.4818    0.9130 H   0  0  0  0  0  0  0  0  0  0  0  0
   -6.2175    2.0233    0.9486 H   0  0  0  0  0  0  0  0  0  0  0  0
   -7.7690    2.3132   -1.6696 H   0  0  0  0  0  0  0  0  0  0  0  0
  1  2  2  0
  2  3  1  0
  3  4  2  0
  4  5  1  0
  5  6  2  0
  5  7  1  0
  6  1  1  0
  7  8  1  0
  8  9  1  0
  9 10  1  0
  9 11  2  0
 10 12  1  0
 12 13  1  0
 13 14  1  0
 14 15  1  0
 14 17  1  0
 15 16  1  0
 16 10  1  0
 17 18  1  0
 18 19  1  0
 18 20  2  0
 19 21  1  0
 21 22  1  0
 22 23  1  0
  1 24  1  0
  2 25  1  0
  3 26  1  0
  4 27  1  0
  6 28  1  0
  8 29  1  0
  8 30  1  0
 12 31  1  0
 12 32  1  0
 13 33  1  0
 13 34  1  0
 14 35  1  0
 15 36  1  0
 15 37  1  0
 16 38  1  0
 16 39  1  0
 17 40  1  0
 19 41  1  0
 19 42  1  0
 21 43  1  0
 21 44  1  0
 22 45  1  0
 22 46  1  0
 23 47  1  0
M  END
>  <Mol_ID>  (1) 
2387

>  <Formula>  (1) 
C17H22Cl2N2O3S

>  <MolWeight>  (1) 
405.33918

>  <Cat>  (1) 
S7333

>  <Name>  (1) 
K-Ras(G12C) inhibitor 6

>  <Synonyms>  (1) 
N/A

>  <Target>  (1) 
Ras

>  <Form>  (1) 
free base

>  <CAS>  (1) 
2060530-16-5

>  <URL>  (1) 
http://selleckchem.com/products/k-ras-g12c-inhibitor-6.html

$$$$
