LEXXEL (enalapril maleate).cdx
     RDKit          3D

 67 67  0  0  0  0  0  0  0  0999 V2000
   -3.7886   -3.5412    1.2898 C   0  0  0  0  0  0  0  0  0  0  0  0
   -5.0140   -3.4519    0.6848 C   0  0  0  0  0  0  0  0  0  0  0  0
   -5.2115   -2.6393   -0.4301 C   0  0  0  0  0  0  0  0  0  0  0  0
   -4.1170   -1.9433   -0.8787 C   0  0  0  0  0  0  0  0  0  0  0  0
   -2.8816   -2.0323   -0.2702 C   0  0  0  0  0  0  0  0  0  0  0  0
   -2.6811   -2.8326    0.8303 C   0  0  0  0  0  0  0  0  0  0  0  0
   -1.7580   -1.2054   -0.8701 C   0  0  0  0  0  0  0  0  0  0  0  0
   -1.8026    0.0956   -0.1649 C   0  0  0  0  0  0  0  0  0  0  0  0
   -0.8481    1.1621   -0.5688 C   0  0  2  0  0  0  0  0  0  0  0  0
    0.5490    0.8688   -0.4972 N   0  0  0  0  0  0  0  0  0  0  0  0
   -1.1065    2.3493    0.3265 C   0  0  0  0  0  0  0  0  0  0  0  0
   -2.4051    2.8468    0.4403 O   0  0  0  0  0  0  0  0  0  0  0  0
   -0.1291    2.8494    0.9422 O   0  0  0  0  0  0  0  0  0  0  0  0
   -2.7037    3.9567    1.2647 C   0  0  0  0  0  0  0  0  0  0  0  0
   -1.9674    5.2085    0.8806 C   0  0  0  0  0  0  0  0  0  0  0  0
    1.1105    0.1669   -1.6096 C   0  0  2  0  0  0  0  0  0  0  0  0
    2.4359   -0.3429   -1.2955 C   0  0  0  0  0  0  0  0  0  0  0  0
    1.1880    1.0865   -2.8447 C   0  0  0  0  0  0  0  0  0  0  0  0
    3.1142   -0.3717   -0.0553 N   0  0  0  0  0  0  0  0  0  0  0  0
    3.0970   -0.8460   -2.2809 O   0  0  0  0  0  0  0  0  0  0  0  0
    4.4822   -0.9350    0.0058 C   0  0  1  0  0  0  0  0  0  0  0  0
    4.8322   -0.8694    1.4594 C   0  0  0  0  0  0  0  0  0  0  0  0
    4.0755    0.3359    1.9559 C   0  0  0  0  0  0  0  0  0  0  0  0
    2.7207    0.0526    1.2671 C   0  0  0  0  0  0  0  0  0  0  0  0
    4.5111   -2.3330   -0.5063 C   0  0  0  0  0  0  0  0  0  0  0  0
    3.4178   -3.0397   -0.9204 O   0  0  0  0  0  0  0  0  0  0  0  0
    5.6577   -2.8904   -0.5505 O   0  0  0  0  0  0  0  0  0  0  0  0
    1.3187   -0.0908    0.3440 C   0  0  0  0  0  0  0  0  0  0  0  0
    2.6312   -0.5630    0.5339 O   0  0  0  0  0  0  0  0  0  0  0  0
   -2.8021    0.4593   -0.6160 O   0  0  0  0  0  0  0  0  0  0  0  0
   -1.5626    0.4558   -0.2662 C   0  0  0  0  0  0  0  0  0  0  0  0
   -0.8564   -0.7587   -0.5214 C   0  0  0  0  0  0  0  0  0  0  0  0
    0.3979   -1.0232   -0.2658 C   0  0  0  0  0  0  0  0  0  0  0  0
   -1.1381    1.6225    0.2913 O   0  0  0  0  0  0  0  0  0  0  0  0
    1.1101    1.0622    0.7206 O   0  0  0  0  0  0  0  0  0  0  0  0
   -3.6987   -4.1873    2.1495 H   0  0  0  0  0  0  0  0  0  0  0  0
   -5.8906   -3.9996    1.0318 H   0  0  0  0  0  0  0  0  0  0  0  0
   -6.1662   -2.5634   -0.9095 H   0  0  0  0  0  0  0  0  0  0  0  0
   -4.2598   -1.3090   -1.7446 H   0  0  0  0  0  0  0  0  0  0  0  0
   -1.7128   -2.8925    1.2946 H   0  0  0  0  0  0  0  0  0  0  0  0
   -1.8708   -1.1316   -1.9453 H   0  0  0  0  0  0  0  0  0  0  0  0
   -0.8477   -1.7896   -0.5326 H   0  0  0  0  0  0  0  0  0  0  0  0
   -2.8425    0.5162   -0.3149 H   0  0  0  0  0  0  0  0  0  0  0  0
   -1.6334   -0.0793    0.9314 H   0  0  0  0  0  0  0  0  0  0  0  0
   -1.1108    1.5161   -1.6147 H   0  0  0  0  0  0  0  0  0  0  0  0
    1.0966    1.8089   -0.4926 H   0  0  0  0  0  0  0  0  0  0  0  0
   -2.5007    3.7519    2.3332 H   0  0  0  0  0  0  0  0  0  0  0  0
   -3.7983    4.1350    1.1779 H   0  0  0  0  0  0  0  0  0  0  0  0
   -1.0177    4.9371    0.3800 H   0  0  0  0  0  0  0  0  0  0  0  0
   -2.5963    5.8158    0.1866 H   0  0  0  0  0  0  0  0  0  0  0  0
   -1.7531    5.8215    1.7968 H   0  0  0  0  0  0  0  0  0  0  0  0
    0.4965   -0.6797   -1.9638 H   0  0  0  0  0  0  0  0  0  0  0  0
    0.2488    1.0078   -3.4393 H   0  0  0  0  0  0  0  0  0  0  0  0
    1.3840    2.1243   -2.5786 H   0  0  0  0  0  0  0  0  0  0  0  0
    1.9960    0.6626   -3.4758 H   0  0  0  0  0  0  0  0  0  0  0  0
    5.1788   -0.2693   -0.5281 H   0  0  0  0  0  0  0  0  0  0  0  0
    5.9231   -0.7649    1.6395 H   0  0  0  0  0  0  0  0  0  0  0  0
    4.4098   -1.7495    1.9961 H   0  0  0  0  0  0  0  0  0  0  0  0
    4.4798    1.2423    1.5021 H   0  0  0  0  0  0  0  0  0  0  0  0
    3.9647    0.3710    3.0504 H   0  0  0  0  0  0  0  0  0  0  0  0
    2.0612    0.8953    1.3455 H   0  0  0  0  0  0  0  0  0  0  0  0
    2.3376   -0.8480    1.8353 H   0  0  0  0  0  0  0  0  0  0  0  0
    3.3454   -4.0474   -0.7148 H   0  0  0  0  0  0  0  0  0  0  0  0
    3.3472    0.1777    0.5911 H   0  0  0  0  0  0  0  0  0  0  0  0
   -1.4230   -1.5906   -0.9932 H   0  0  0  0  0  0  0  0  0  0  0  0
    0.7457   -2.0235   -0.5411 H   0  0  0  0  0  0  0  0  0  0  0  0
   -1.7686    2.2723    0.7229 H   0  0  0  0  0  0  0  0  0  0  0  0
  1  2  2  0
  2  3  1  0
  3  4  2  0
  4  5  1  0
  5  6  2  0
  5  7  1  0
  6  1  1  0
  7  8  1  0
  9 11  1  0
  9 10  1  0
  9  8  1  0
 11 12  1  0
 11 13  2  0
 12 14  1  0
 14 15  1  0
 16 18  1  0
 16 17  1  0
 16 10  1  0
 17 19  1  0
 17 20  2  0
 19 21  1  0
 21 22  1  0
 21 25  1  0
 22 23  1  0
 23 24  1  0
 24 19  1  0
 25 26  1  0
 25 27  2  0
 28 29  1  0
 28 35  2  0
 30 31  2  0
 31 32  1  0
 31 34  1  0
 32 33  2  0
 33 28  1  0
  1 36  1  0
  2 37  1  0
  3 38  1  0
  4 39  1  0
  6 40  1  0
  7 41  1  0
  7 42  1  0
  8 43  1  0
  8 44  1  0
  9 45  1  6
 10 46  1  0
 14 47  1  0
 14 48  1  0
 15 49  1  0
 15 50  1  0
 15 51  1  0
 16 52  1  6
 18 53  1  0
 18 54  1  0
 18 55  1  0
 21 56  1  6
 22 57  1  0
 22 58  1  0
 23 59  1  0
 23 60  1  0
 24 61  1  0
 24 62  1  0
 26 63  1  0
 29 64  1  0
 32 65  1  0
 33 66  1  0
 34 67  1  0
M  END
>  <Mol_ID>  (1) 
462

>  <Formula>  (1) 
C24H32N2O9

>  <MolWeight>  (1) 
492.51888

>  <Cat>  (1) 
S1941

>  <Name>  (1) 
Enalapril Maleate

>  <Synonyms>  (1) 
MK-421 Maleate

>  <Target>  (1) 
ACE,RAAS

>  <Form>  (1) 
Maleate

>  <CAS>  (1) 
76095-16-4

>  <URL>  (1) 
http://selleckchem.com/products/Enalapril-maleate(Vasotec).html

$$$$
