matrine.cdx
     RDKit          3D

 42 45  0  0  0  0  0  0  0  0999 V2000
   -2.1992   -2.0910   -0.4363 C   0  0  0  0  0  0  0  0  0  0  0  0
   -3.0325   -1.4114    0.6293 C   0  0  0  0  0  0  0  0  0  0  0  0
   -3.2076    0.0163    0.1627 C   0  0  0  0  0  0  0  0  0  0  0  0
   -1.9124    0.6592    0.2531 N   0  0  0  0  0  0  0  0  0  0  0  0
   -1.0384    0.0930   -0.7691 C   0  0  2  0  0  0  0  0  0  0  0  0
   -0.9056   -1.3834   -0.7087 C   0  0  1  0  0  0  0  0  0  0  0  0
   -2.1647    2.0266   -0.2084 C   0  0  0  0  0  0  0  0  0  0  0  0
   -0.9154    2.8012    0.0618 C   0  0  0  0  0  0  0  0  0  0  0  0
    0.1989    2.2630   -0.7894 C   0  0  0  0  0  0  0  0  0  0  0  0
    0.2841    0.7711   -0.8412 C   0  0  1  0  0  0  0  0  0  0  0  0
    1.2956    0.3296    0.1705 C   0  0  1  0  0  0  0  0  0  0  0  0
    1.2532   -1.0894    0.4684 N   0  0  0  0  0  0  0  0  0  0  0  0
    0.0969   -1.9130    0.2495 C   0  0  0  0  0  0  0  0  0  0  0  0
    2.6952    0.6055   -0.3400 C   0  0  0  0  0  0  0  0  0  0  0  0
    3.6795    0.4135    0.7922 C   0  0  0  0  0  0  0  0  0  0  0  0
    3.7495   -1.0807    1.0302 C   0  0  0  0  0  0  0  0  0  0  0  0
    2.4214   -1.7066    1.0088 C   0  0  0  0  0  0  0  0  0  0  0  0
    2.3145   -2.8764    1.5071 O   0  0  0  0  0  0  0  0  0  0  0  0
   -1.9838   -3.1177   -0.0370 H   0  0  0  0  0  0  0  0  0  0  0  0
   -2.8462   -2.2272   -1.3191 H   0  0  0  0  0  0  0  0  0  0  0  0
   -4.0015   -1.9368    0.6670 H   0  0  0  0  0  0  0  0  0  0  0  0
   -2.5259   -1.3621    1.6118 H   0  0  0  0  0  0  0  0  0  0  0  0
   -3.4733   -0.0292   -0.9078 H   0  0  0  0  0  0  0  0  0  0  0  0
   -3.9706    0.5610    0.7533 H   0  0  0  0  0  0  0  0  0  0  0  0
   -1.5594    0.3361   -1.7305 H   0  0  0  0  0  0  0  0  0  0  0  0
   -0.6002   -1.7048   -1.7442 H   0  0  0  0  0  0  0  0  0  0  0  0
   -3.0760    2.4519    0.2295 H   0  0  0  0  0  0  0  0  0  0  0  0
   -2.3051    1.9748   -1.3052 H   0  0  0  0  0  0  0  0  0  0  0  0
   -0.6900    2.7144    1.1399 H   0  0  0  0  0  0  0  0  0  0  0  0
   -1.0691    3.8638   -0.2106 H   0  0  0  0  0  0  0  0  0  0  0  0
    1.1332    2.6932   -0.3422 H   0  0  0  0  0  0  0  0  0  0  0  0
    0.1478    2.7250   -1.8144 H   0  0  0  0  0  0  0  0  0  0  0  0
    0.7160    0.5176   -1.8333 H   0  0  0  0  0  0  0  0  0  0  0  0
    1.1835    0.8606    1.1475 H   0  0  0  0  0  0  0  0  0  0  0  0
   -0.4177   -2.1732    1.2147 H   0  0  0  0  0  0  0  0  0  0  0  0
    0.4493   -2.8913   -0.1396 H   0  0  0  0  0  0  0  0  0  0  0  0
    2.9103   -0.1614   -1.1104 H   0  0  0  0  0  0  0  0  0  0  0  0
    2.7926    1.5888   -0.8295 H   0  0  0  0  0  0  0  0  0  0  0  0
    3.3019    0.9073    1.6997 H   0  0  0  0  0  0  0  0  0  0  0  0
    4.6464    0.8148    0.4873 H   0  0  0  0  0  0  0  0  0  0  0  0
    4.3312   -1.5096    0.1640 H   0  0  0  0  0  0  0  0  0  0  0  0
    4.2939   -1.3231    1.9686 H   0  0  0  0  0  0  0  0  0  0  0  0
  1  2  1  0
  2  3  1  0
  3  4  1  0
  4  7  1  0
  5  4  1  0
  5  6  1  0
  6  1  1  0
  7  8  1  0
  8  9  1  0
 10  9  1  0
 10  5  1  0
 10 11  1  0
 11 12  1  0
 11 14  1  0
 12 13  1  0
 13  6  1  0
 14 15  1  0
 15 16  1  0
 16 17  1  0
 17 12  1  0
 17 18  2  0
  1 19  1  0
  1 20  1  0
  2 21  1  0
  2 22  1  0
  3 23  1  0
  3 24  1  0
  5 25  1  6
  6 26  1  6
  7 27  1  0
  7 28  1  0
  8 29  1  0
  8 30  1  0
  9 31  1  0
  9 32  1  0
 10 33  1  6
 11 34  1  1
 13 35  1  0
 13 36  1  0
 14 37  1  0
 14 38  1  0
 15 39  1  0
 15 40  1  0
 16 41  1  0
 16 42  1  0
M  END
>  <Mol_ID>  (1) 
703

>  <Formula>  (1) 
C15H24N2O

>  <MolWeight>  (1) 
248.36386

>  <Cat>  (1) 
S2322

>  <Name>  (1) 
(+)-Matrine

>  <Synonyms>  (1) 
N/A

>  <Target>  (1) 
Opioid Receptor

>  <Form>  (1) 
free base

>  <CAS>  (1) 
519-02-8

>  <URL>  (1) 
http://selleckchem.com/products/matrine.html

$$$$
