Oclacitinib maleate.cdx
     RDKit          3D

 58 59  0  0  0  0  0  0  0  0999 V2000
    3.2882   -1.5656    1.3142 N   0  0  0  0  0  0  0  0  0  0  0  0
    4.3577   -1.5548    2.1559 C   0  0  0  0  0  0  0  0  0  0  0  0
    5.3522   -0.6480    2.0031 N   0  0  0  0  0  0  0  0  0  0  0  0
    5.2851    0.2463    1.0168 C   0  0  0  0  0  0  0  0  0  0  0  0
    4.2119    0.2575    0.1492 C   0  0  0  0  0  0  0  0  0  0  0  0
    3.1947   -0.6650    0.3002 C   0  0  0  0  0  0  0  0  0  0  0  0
    6.1265    1.2426    0.6486 N   0  0  0  0  0  0  0  0  0  0  0  0
    5.5967    1.8618   -0.4197 C   0  0  0  0  0  0  0  0  0  0  0  0
    4.4076    1.2640   -0.7445 C   0  0  0  0  0  0  0  0  0  0  0  0
    2.0583   -0.7142   -0.5547 N   0  0  0  0  0  0  0  0  0  0  0  0
    2.3075   -0.9441   -1.9646 C   0  0  0  0  0  0  0  0  0  0  0  0
    0.7458   -0.5415   -0.0196 C   0  0  2  0  0  0  0  0  0  0  0  0
   -0.1188   -1.7610   -0.2775 C   0  0  0  0  0  0  0  0  0  0  0  0
   -1.5009   -1.6016    0.2327 C   0  0  0  0  0  0  0  0  0  0  0  0
   -2.1863   -0.3147   -0.2354 C   0  0  2  0  0  0  0  0  0  0  0  0
   -1.2803    0.8029    0.1852 C   0  0  0  0  0  0  0  0  0  0  0  0
    0.0165    0.6254   -0.6321 C   0  0  0  0  0  0  0  0  0  0  0  0
   -3.5169   -0.2176    0.4065 C   0  0  0  0  0  0  0  0  0  0  0  0
   -4.3811    1.2319   -0.1051 S   0  0  0  0  0  0  0  0  0  0  0  0
   -5.9684    1.2819    0.6406 N   0  0  0  0  0  0  0  0  0  0  0  0
   -6.7221    0.1293    0.2070 C   0  0  0  0  0  0  0  0  0  0  0  0
   -3.6781    2.5000    0.3341 O   0  0  0  0  0  0  0  0  0  0  0  0
   -4.5599    1.2232   -1.5919 O   0  0  0  0  0  0  0  0  0  0  0  0
   -0.5839   -0.9480   -0.2195 C   0  0  0  0  0  0  0  0  0  0  0  0
    0.6826   -1.0517    0.0837 C   0  0  0  0  0  0  0  0  0  0  0  0
   -1.2807    0.2928   -0.3716 C   0  0  0  0  0  0  0  0  0  0  0  0
    1.6083    0.0143    0.3198 C   0  0  0  0  0  0  0  0  0  0  0  0
   -2.6543    0.2047   -0.6957 O   0  0  0  0  0  0  0  0  0  0  0  0
   -0.8603    1.4556   -0.2617 O   0  0  0  0  0  0  0  0  0  0  0  0
    2.8076   -0.3411    0.6045 O   0  0  0  0  0  0  0  0  0  0  0  0
    1.4164    1.3700    0.2899 O   0  0  0  0  0  0  0  0  0  0  0  0
    4.4376   -2.2694    2.9649 H   0  0  0  0  0  0  0  0  0  0  0  0
    7.0316    1.5330    1.0676 H   0  0  0  0  0  0  0  0  0  0  0  0
    6.0326    2.7034   -0.9499 H   0  0  0  0  0  0  0  0  0  0  0  0
    3.7607    1.5349   -1.5430 H   0  0  0  0  0  0  0  0  0  0  0  0
    3.3029   -1.3878   -2.1472 H   0  0  0  0  0  0  0  0  0  0  0  0
    1.5803   -1.6424   -2.4279 H   0  0  0  0  0  0  0  0  0  0  0  0
    2.1494    0.0250   -2.4861 H   0  0  0  0  0  0  0  0  0  0  0  0
    0.7857   -0.4024    1.0649 H   0  0  0  0  0  0  0  0  0  0  0  0
    0.3400   -2.6071    0.2714 H   0  0  0  0  0  0  0  0  0  0  0  0
   -0.1169   -2.0140   -1.3599 H   0  0  0  0  0  0  0  0  0  0  0  0
   -1.5206   -1.6830    1.3452 H   0  0  0  0  0  0  0  0  0  0  0  0
   -2.1168   -2.4306   -0.1696 H   0  0  0  0  0  0  0  0  0  0  0  0
   -2.2256   -0.3712   -1.3232 H   0  0  0  0  0  0  0  0  0  0  0  0
   -1.6294    1.8161   -0.0342 H   0  0  0  0  0  0  0  0  0  0  0  0
   -0.9363    0.7035    1.2406 H   0  0  0  0  0  0  0  0  0  0  0  0
   -0.3315    0.3369   -1.6580 H   0  0  0  0  0  0  0  0  0  0  0  0
    0.6002    1.5534   -0.6683 H   0  0  0  0  0  0  0  0  0  0  0  0
   -4.1387   -1.1365    0.2881 H   0  0  0  0  0  0  0  0  0  0  0  0
   -3.4188   -0.1218    1.5332 H   0  0  0  0  0  0  0  0  0  0  0  0
   -5.8389    1.2474    1.6743 H   0  0  0  0  0  0  0  0  0  0  0  0
   -7.4714    0.4909   -0.5465 H   0  0  0  0  0  0  0  0  0  0  0  0
   -6.0411   -0.5951   -0.2466 H   0  0  0  0  0  0  0  0  0  0  0  0
   -7.2710   -0.3142    1.0610 H   0  0  0  0  0  0  0  0  0  0  0  0
   -1.1233   -1.9027   -0.3619 H   0  0  0  0  0  0  0  0  0  0  0  0
    1.0665   -2.0893    0.1629 H   0  0  0  0  0  0  0  0  0  0  0  0
   -3.2674    0.9914   -0.4124 H   0  0  0  0  0  0  0  0  0  0  0  0
    2.1885    2.0040    0.1267 H   0  0  0  0  0  0  0  0  0  0  0  0
  1  2  2  0
  2  3  1  0
  3  4  2  0
  4  5  1  0
  4  7  1  0
  5  6  2  0
  6  1  1  0
  6 10  1  0
  7  8  1  0
  8  9  2  0
  9  5  1  0
 10 11  1  0
 12 10  1  0
 12 13  1  0
 13 14  1  0
 14 15  1  0
 15 16  1  0
 15 18  1  0
 16 17  1  0
 17 12  1  0
 18 19  1  0
 19 20  1  0
 19 22  2  0
 19 23  2  0
 20 21  1  0
 24 25  2  0
 24 26  1  0
 25 27  1  0
 26 28  1  0
 26 29  2  0
 27 30  2  0
 27 31  1  0
  2 32  1  0
  7 33  1  0
  8 34  1  0
  9 35  1  0
 11 36  1  0
 11 37  1  0
 11 38  1  0
 12 39  1  1
 13 40  1  0
 13 41  1  0
 14 42  1  0
 14 43  1  0
 15 44  1  6
 16 45  1  0
 16 46  1  0
 17 47  1  0
 17 48  1  0
 18 49  1  0
 18 50  1  0
 20 51  1  0
 21 52  1  0
 21 53  1  0
 21 54  1  0
 24 55  1  0
 25 56  1  0
 28 57  1  0
 31 58  1  0
M  END
>  <Mol_ID>  (1) 
3923

>  <Formula>  (1) 
C19H27N5O6S

>  <MolWeight>  (1) 
453.51258

>  <Cat>  (1) 
S8195

>  <Name>  (1) 
Oclacitinib?maleate

>  <Synonyms>  (1) 
PF-03394197

>  <Target>  (1) 
JAK

>  <Form>  (1) 
maleate

>  <CAS>  (1) 
1640292-55-2

>  <URL>  (1) 
http://selleckchem.com/products/oclacitinib-maleate.html

$$$$
