Omeprazole.cdx
     RDKit          3D

 43 45  0  0  0  0  0  0  0  0999 V2000
    4.7798   -0.5830    0.1226 C   0  0  0  0  0  0  0  0  0  0  0  0
    3.9804   -1.5376   -0.4709 C   0  0  0  0  0  0  0  0  0  0  0  0
    2.6764   -1.2392   -0.8371 C   0  0  0  0  0  0  0  0  0  0  0  0
    2.1610    0.0203   -0.6115 C   0  0  0  0  0  0  0  0  0  0  0  0
    2.9663    0.9783   -0.0148 C   0  0  0  0  0  0  0  0  0  0  0  0
    4.2645    0.6895    0.3524 C   0  0  0  0  0  0  0  0  0  0  0  0
    0.9769    0.6338   -0.8327 N   0  0  0  0  0  0  0  0  0  0  0  0
    1.0662    1.9076   -0.3878 C   0  0  0  0  0  0  0  0  0  0  0  0
    2.2933    2.1352    0.1216 N   0  0  0  0  0  0  0  0  0  0  0  0
    4.4787   -2.8135   -0.7077 O   0  0  0  0  0  0  0  0  0  0  0  0
    5.8117   -3.0907   -0.3240 C   0  0  0  0  0  0  0  0  0  0  0  0
   -0.2455    3.1251   -0.4587 S   0  0  0  0  0  0  0  0  0  0  0  0
   -1.0550    2.8129   -1.7002 O   0  0  0  0  0  0  0  0  0  0  0  0
   -1.2312    3.0339    1.0403 C   0  0  0  0  0  0  0  0  0  0  0  0
   -1.8216    1.6814    1.1619 C   0  0  0  0  0  0  0  0  0  0  0  0
   -2.9246    1.2549    0.4651 C   0  0  0  0  0  0  0  0  0  0  0  0
   -3.3489   -0.0347    0.6725 C   0  0  0  0  0  0  0  0  0  0  0  0
   -2.7165   -0.9010    1.5420 C   0  0  0  0  0  0  0  0  0  0  0  0
   -1.6061   -0.4325    2.2276 C   0  0  0  0  0  0  0  0  0  0  0  0
   -1.1975    0.8289    2.0192 N   0  0  0  0  0  0  0  0  0  0  0  0
   -3.6460    2.1315   -0.4591 C   0  0  0  0  0  0  0  0  0  0  0  0
   -3.1452   -2.2871    1.7860 C   0  0  0  0  0  0  0  0  0  0  0  0
   -4.4617   -0.5414    0.0007 O   0  0  0  0  0  0  0  0  0  0  0  0
   -4.2226   -1.1731   -1.2430 C   0  0  0  0  0  0  0  0  0  0  0  0
    5.8154   -0.7848    0.4247 H   0  0  0  0  0  0  0  0  0  0  0  0
    2.0491   -1.9736   -1.2986 H   0  0  0  0  0  0  0  0  0  0  0  0
    4.8762    1.4554    0.8181 H   0  0  0  0  0  0  0  0  0  0  0  0
    2.5906    3.0495    0.5235 H   0  0  0  0  0  0  0  0  0  0  0  0
    6.0362   -2.8030    0.7088 H   0  0  0  0  0  0  0  0  0  0  0  0
    6.4641   -2.4610   -0.9750 H   0  0  0  0  0  0  0  0  0  0  0  0
    6.0423   -4.1477   -0.5568 H   0  0  0  0  0  0  0  0  0  0  0  0
   -0.6392    3.3152    1.9349 H   0  0  0  0  0  0  0  0  0  0  0  0
   -2.0253    3.8304    0.9536 H   0  0  0  0  0  0  0  0  0  0  0  0
   -1.0568   -1.0671    2.9336 H   0  0  0  0  0  0  0  0  0  0  0  0
   -4.7482    2.0323   -0.2025 H   0  0  0  0  0  0  0  0  0  0  0  0
   -3.5954    1.8385   -1.5275 H   0  0  0  0  0  0  0  0  0  0  0  0
   -3.4147    3.1974   -0.3837 H   0  0  0  0  0  0  0  0  0  0  0  0
   -2.7929   -2.6345    2.7766 H   0  0  0  0  0  0  0  0  0  0  0  0
   -4.2354   -2.4005    1.7696 H   0  0  0  0  0  0  0  0  0  0  0  0
   -2.7572   -2.9579    0.9725 H   0  0  0  0  0  0  0  0  0  0  0  0
   -3.4302   -1.9622   -1.1468 H   0  0  0  0  0  0  0  0  0  0  0  0
   -5.1674   -1.6345   -1.6419 H   0  0  0  0  0  0  0  0  0  0  0  0
   -3.8440   -0.4916   -2.0271 H   0  0  0  0  0  0  0  0  0  0  0  0
  1  2  2  0
  2  3  1  0
  2 10  1  0
  3  4  2  0
  4  5  1  0
  4  7  1  0
  5  6  2  0
  6  1  1  0
  7  8  2  0
  8  9  1  0
  8 12  1  0
  9  5  1  0
 10 11  1  0
 12 13  2  0
 12 14  1  1
 14 15  1  0
 15 16  2  0
 16 17  1  0
 16 21  1  0
 17 18  2  0
 17 23  1  0
 18 19  1  0
 18 22  1  0
 19 20  2  0
 20 15  1  0
 23 24  1  0
  1 25  1  0
  3 26  1  0
  6 27  1  0
  9 28  1  0
 11 29  1  0
 11 30  1  0
 11 31  1  0
 14 32  1  0
 14 33  1  0
 19 34  1  0
 21 35  1  0
 21 36  1  0
 21 37  1  0
 22 38  1  0
 22 39  1  0
 22 40  1  0
 24 41  1  0
 24 42  1  0
 24 43  1  0
M  END
>  <Mol_ID>  (1) 
234

>  <Formula>  (1) 
C17H19N3O3S

>  <MolWeight>  (1) 
345.41606

>  <Cat>  (1) 
S1389

>  <Name>  (1) 
Omeprazole

>  <Synonyms>  (1) 
N/A

>  <Target>  (1) 
ATPase,Autophagy,Proton Pump

>  <Form>  (1) 
free base

>  <CAS>  (1) 
73590-58-6

>  <URL>  (1) 
http://selleckchem.com/products/Omeprazole.html

$$$$
