ONC206
     RDKit          3D

 52 56  0  0  0  0  0  0  0  0999 V2000
   -5.4729   -0.3053    0.0680 F   0  0  0  0  0  0  0  0  0  0  0  0
   -6.1836    3.8166   -2.0521 F   0  0  0  0  0  0  0  0  0  0  0  0
   -0.5524    1.5194    0.7126 O   0  0  0  0  0  0  0  0  0  0  0  0
   -1.3219   -2.3672   -0.0984 N   0  0  0  0  0  0  0  0  0  0  0  0
    2.6129   -0.8604   -0.3230 N   0  0  0  0  0  0  0  0  0  0  0  0
   -2.1271   -0.2408    0.8036 N   0  0  0  0  0  0  0  0  0  0  0  0
   -3.3635   -2.3780    0.6718 N   0  0  0  0  0  0  0  0  0  0  0  0
   -0.0899   -1.7612   -0.3874 C   0  0  0  0  0  0  0  0  0  0  0  0
    0.2108   -0.4953   -0.1425 C   0  0  0  0  0  0  0  0  0  0  0  0
    1.0141   -2.5718   -1.0209 C   0  0  0  0  0  0  0  0  0  0  0  0
    1.5568    0.0636   -0.4875 C   0  0  0  0  0  0  0  0  0  0  0  0
    2.2696   -2.2421   -0.2324 C   0  0  0  0  0  0  0  0  0  0  0  0
   -2.3549   -1.6024    0.5040 C   0  0  0  0  0  0  0  0  0  0  0  0
   -1.7557   -3.7344   -0.3226 C   0  0  0  0  0  0  0  0  0  0  0  0
   -0.8338    0.3146    0.4769 C   0  0  0  0  0  0  0  0  0  0  0  0
   -3.1485   -3.7125    0.2210 C   0  0  0  0  0  0  0  0  0  0  0  0
    3.6508   -0.5439    0.5930 C   0  0  0  0  0  0  0  0  0  0  0  0
   -3.0729    0.6474    1.4255 C   0  0  0  0  0  0  0  0  0  0  0  0
    4.4258    0.6711    0.2554 C   0  0  0  0  0  0  0  0  0  0  0  0
   -3.9318    1.4105    0.5246 C   0  0  0  0  0  0  0  0  0  0  0  0
    5.5295    0.4977   -0.5848 C   0  0  0  0  0  0  0  0  0  0  0  0
    4.1261    1.9329    0.7142 C   0  0  0  0  0  0  0  0  0  0  0  0
   -5.0503    0.9612   -0.1232 C   0  0  0  0  0  0  0  0  0  0  0  0
   -3.5691    2.7429    0.2798 C   0  0  0  0  0  0  0  0  0  0  0  0
    6.3107    1.5721   -0.9527 C   0  0  0  0  0  0  0  0  0  0  0  0
    4.9269    2.9873    0.3278 C   0  0  0  0  0  0  0  0  0  0  0  0
   -5.7863    1.7529   -0.9672 C   0  0  0  0  0  0  0  0  0  0  0  0
   -4.3187    3.5430   -0.5775 C   0  0  0  0  0  0  0  0  0  0  0  0
    6.0185    2.8414   -0.4987 C   0  0  0  0  0  0  0  0  0  0  0  0
   -5.4360    3.0636   -1.2139 C   0  0  0  0  0  0  0  0  0  0  0  0
    0.8114   -3.6472   -0.8798 H   0  0  0  0  0  0  0  0  0  0  0  0
    1.2162   -2.2736   -2.0581 H   0  0  0  0  0  0  0  0  0  0  0  0
    1.4710    0.3048   -1.5900 H   0  0  0  0  0  0  0  0  0  0  0  0
    1.6332    1.0201    0.0258 H   0  0  0  0  0  0  0  0  0  0  0  0
    2.1721   -2.6110    0.8222 H   0  0  0  0  0  0  0  0  0  0  0  0
    3.0911   -2.8395   -0.6931 H   0  0  0  0  0  0  0  0  0  0  0  0
   -1.6864   -3.9787   -1.4026 H   0  0  0  0  0  0  0  0  0  0  0  0
   -1.1290   -4.4110    0.2976 H   0  0  0  0  0  0  0  0  0  0  0  0
   -3.2371   -4.4451    1.0504 H   0  0  0  0  0  0  0  0  0  0  0  0
   -3.9156   -3.9392   -0.5592 H   0  0  0  0  0  0  0  0  0  0  0  0
    3.2472   -0.4848    1.6475 H   0  0  0  0  0  0  0  0  0  0  0  0
    4.3255   -1.4396    0.6344 H   0  0  0  0  0  0  0  0  0  0  0  0
   -3.7624    0.0437    2.0929 H   0  0  0  0  0  0  0  0  0  0  0  0
   -2.5467    1.3137    2.1694 H   0  0  0  0  0  0  0  0  0  0  0  0
    5.7736   -0.4911   -0.9503 H   0  0  0  0  0  0  0  0  0  0  0  0
    3.2808    2.0821    1.3660 H   0  0  0  0  0  0  0  0  0  0  0  0
   -2.7206    3.1947    0.7316 H   0  0  0  0  0  0  0  0  0  0  0  0
    7.1789    1.4383   -1.6131 H   0  0  0  0  0  0  0  0  0  0  0  0
    4.6392    3.9731    0.7234 H   0  0  0  0  0  0  0  0  0  0  0  0
   -6.6562    1.3702   -1.4584 H   0  0  0  0  0  0  0  0  0  0  0  0
   -4.0466    4.5752   -0.7749 H   0  0  0  0  0  0  0  0  0  0  0  0
    6.5774    3.7216   -0.7412 H   0  0  0  0  0  0  0  0  0  0  0  0
  1 23  1  0
  2 30  1  0
  3 15  2  0
  4  8  1  0
  4 13  1  0
  4 14  1  0
  5 11  1  0
  5 12  1  0
  5 17  1  0
  6 13  1  0
  6 15  1  0
  6 18  1  0
  7 13  2  0
  7 16  1  0
  8  9  2  0
  8 10  1  0
  9 11  1  0
  9 15  1  0
 10 12  1  0
 14 16  1  0
 17 19  1  0
 18 20  1  0
 19 21  2  0
 19 22  1  0
 20 23  2  0
 20 24  1  0
 21 25  1  0
 22 26  2  0
 23 27  1  0
 24 28  2  0
 25 29  2  0
 26 29  1  0
 27 30  2  0
 28 30  1  0
 10 31  1  0
 10 32  1  0
 11 33  1  0
 11 34  1  0
 12 35  1  0
 12 36  1  0
 14 37  1  0
 14 38  1  0
 16 39  1  0
 16 40  1  0
 17 41  1  0
 17 42  1  0
 18 43  1  0
 18 44  1  0
 21 45  1  0
 22 46  1  0
 24 47  1  0
 25 48  1  0
 26 49  1  0
 27 50  1  0
 28 51  1  0
 29 52  1  0
M  END
>  <Mol_ID>  (1) 
5195

>  <Formula>  (1) 
C23H22F2N4O

>  <MolWeight>  (1) 
408.4437864

>  <Cat>  (1) 
S6853

>  <Name>  (1) 
ONC206

>  <Synonyms>  (1) 
N/A

>  <Target>  (1) 
Dopamine Receptor

>  <Form>  (1) 
free base

>  <CAS>  (1) 
1638178-87-6

>  <URL>  (1) 
http://www.selleckchem.com/products/onc206.html

$$$$
