OSI 420.cdx
     RDKit          3D

 48 50  0  0  0  0  0  0  0  0999 V2000
    4.2286    0.1410    0.5985 C   0  0  0  0  0  0  0  0  0  0  0  0
    4.9290    0.3202   -0.5887 C   0  0  0  0  0  0  0  0  0  0  0  0
    4.7898   -0.5712   -1.6295 C   0  0  0  0  0  0  0  0  0  0  0  0
    3.9485   -1.6856   -1.5450 C   0  0  0  0  0  0  0  0  0  0  0  0
    3.2716   -1.8262   -0.3490 C   0  0  0  0  0  0  0  0  0  0  0  0
    3.3962   -0.9482    0.7022 C   0  0  0  0  0  0  0  0  0  0  0  0
    2.6383   -1.2147    1.8785 N   0  0  0  0  0  2  0  0  0  0  0  0
    1.4218   -1.9832    1.7886 C   0  0  0  0  0  0  0  0  0  0  0  0
    1.4248   -3.3262    1.8890 N   0  0  0  0  0  0  0  0  0  0  0  0
    0.2967   -4.0362    1.8054 C   0  0  0  0  0  0  0  0  0  0  0  0
   -0.8608   -3.3949    1.6176 N   0  0  0  0  0  0  0  0  0  0  0  0
   -0.9434   -2.0609    1.5082 C   0  0  0  0  0  0  0  0  0  0  0  0
    0.2169   -1.3342    1.5945 C   0  0  0  0  0  0  0  0  0  0  0  0
   -2.1416   -1.4096    1.3148 C   0  0  0  0  0  0  0  0  0  0  0  0
   -2.2649   -0.0432    1.1972 C   0  0  0  0  0  0  0  0  0  0  0  0
   -1.0642    0.7108    1.2863 C   0  0  0  0  0  0  0  0  0  0  0  0
    0.1238    0.0370    1.4811 C   0  0  0  0  0  0  0  0  0  0  0  0
   -3.3995    0.6537    1.0056 O   0  0  0  0  0  0  0  0  0  0  0  0
   -1.1959    2.0510    1.1674 O   0  0  0  0  0  0  0  0  0  0  0  0
   -4.7147    0.2908    0.8520 C   0  0  0  0  0  0  0  0  0  0  0  0
   -5.0607   -0.5506   -0.3328 C   0  0  0  0  0  0  0  0  0  0  0  0
   -4.7085    0.1645   -1.4787 O   0  0  0  0  0  0  0  0  0  0  0  0
   -0.3729    3.1312    1.1599 C   0  0  0  0  0  0  0  0  0  0  0  0
    0.5830    3.1023   -0.0024 C   0  0  0  0  0  0  0  0  0  0  0  0
    1.3682    4.2720    0.1138 O   0  0  0  0  0  0  0  0  0  0  0  0
    5.8147    1.4239   -0.7815 C   0  0  0  0  0  0  0  0  0  0  0  0
    6.5647    2.3498   -0.9642 C   0  0  0  0  0  0  0  0  0  0  0  0
   -4.9854   -0.5227   -2.6574 C   0  0  0  0  0  0  0  0  0  0  0  0
    4.3387    0.8401    1.4128 H   0  0  0  0  0  0  0  0  0  0  0  0
    5.3245   -0.4586   -2.5721 H   0  0  0  0  0  0  0  0  0  0  0  0
    3.8369   -2.3862   -2.3584 H   0  0  0  0  0  0  0  0  0  0  0  0
    2.6100   -2.6842   -0.2551 H   0  0  0  0  0  0  0  0  0  0  0  0
    0.2564   -5.1124    1.8807 H   0  0  0  0  0  0  0  0  0  0  0  0
   -3.0205   -2.0339    1.2677 H   0  0  0  0  0  0  0  0  0  0  0  0
    1.0605    0.5764    1.5708 H   0  0  0  0  0  0  0  0  0  0  0  0
   -5.3380    1.2382    0.7978 H   0  0  0  0  0  0  0  0  0  0  0  0
   -5.0393   -0.1946    1.8121 H   0  0  0  0  0  0  0  0  0  0  0  0
   -6.1830   -0.6909   -0.4171 H   0  0  0  0  0  0  0  0  0  0  0  0
   -4.6528   -1.5625   -0.2830 H   0  0  0  0  0  0  0  0  0  0  0  0
   -0.8934    4.1178    1.2042 H   0  0  0  0  0  0  0  0  0  0  0  0
    0.2904    3.0604    2.0827 H   0  0  0  0  0  0  0  0  0  0  0  0
    1.2294    2.2362    0.0113 H   0  0  0  0  0  0  0  0  0  0  0  0
    0.0384    3.1326   -0.9780 H   0  0  0  0  0  0  0  0  0  0  0  0
    0.7655    5.0330   -0.0922 H   0  0  0  0  0  0  0  0  0  0  0  0
    7.2261    3.1534   -1.1072 H   0  0  0  0  0  0  0  0  0  0  0  0
   -4.6529    0.1677   -3.4850 H   0  0  0  0  0  0  0  0  0  0  0  0
   -6.0749   -0.7037   -2.7539 H   0  0  0  0  0  0  0  0  0  0  0  0
   -4.4260   -1.4696   -2.7405 H   0  0  0  0  0  0  0  0  0  0  0  0
  1  2  2  0
  2  3  1  0
  2 26  1  0
  3  4  2  0
  4  5  1  0
  5  6  2  0
  6  1  1  0
  6  7  1  0
  7  8  1  0
  8  9  2  0
  9 10  1  0
 10 11  2  0
 11 12  1  0
 12 13  2  0
 12 14  1  0
 13  8  1  0
 14 15  2  0
 15 16  1  0
 15 18  1  0
 16 17  2  0
 16 19  1  0
 17 13  1  0
 18 20  1  0
 19 23  1  0
 20 21  1  0
 21 22  1  0
 22 28  1  0
 23 24  1  0
 24 25  1  0
 26 27  3  0
  1 29  1  0
  3 30  1  0
  4 31  1  0
  5 32  1  0
 10 33  1  0
 14 34  1  0
 17 35  1  0
 20 36  1  0
 20 37  1  0
 21 38  1  0
 21 39  1  0
 23 40  1  0
 23 41  1  0
 24 42  1  0
 24 43  1  0
 25 44  1  0
 27 45  1  0
 28 46  1  0
 28 47  1  0
 28 48  1  0
M  RAD  1   7   2
M  END
>  <Mol_ID>  (1) 
645

>  <Formula>  (1) 
C21H22ClN3O4

>  <MolWeight>  (1) 
415.87008

>  <Cat>  (1) 
S2205

>  <Name>  (1) 
OSI-420

>  <Synonyms>  (1) 
DesMethyl Erlotinib (CP-473420) HCl

>  <Target>  (1) 
EGFR

>  <Form>  (1) 
Hydrochloride

>  <CAS>  (1) 
183320-51-6

>  <URL>  (1) 
http://selleckchem.com/products/OSI-420-Desmethyl-Erlotinib,CP-473420.html

$$$$
