Oxyimperatorin
     RDKit          3D

 35 38  0  0  0  0  0  0  0  0999 V2000
    0.2535    0.6877    1.2542 O   0  0  0  0  0  0  0  0  0  0  0  0
    1.2974    1.2917    0.5541 C   0  0  0  0  0  0  0  0  0  0  0  0
   -2.8874    4.1623    1.0370 O   0  0  0  0  0  0  0  0  0  0  0  0
    4.1398    0.3883    1.0669 C   0  0  0  0  0  0  0  0  0  0  0  0
    3.9985   -1.1325   -0.9637 C   0  0  0  0  0  0  0  0  0  0  0  0
   -0.8767    0.1104    0.7373 C   0  0  0  0  0  0  0  0  0  0  0  0
   -2.0068    0.9082    0.5506 C   0  0  0  0  0  0  0  0  0  0  0  0
   -0.9280   -1.2434    0.3951 C   0  0  0  0  0  0  0  0  0  0  0  0
   -3.1815    0.3878    0.0324 C   0  0  0  0  0  0  0  0  0  0  0  0
   -1.9517    2.1592    0.8693 O   0  0  0  0  0  0  0  0  0  0  0  0
   -2.1139   -1.7302   -0.1187 C   0  0  0  0  0  0  0  0  0  0  0  0
   -0.0356   -2.2116    0.4614 O   0  0  0  0  0  0  0  0  0  0  0  0
   -3.2338   -0.9609   -0.3089 C   0  0  0  0  0  0  0  0  0  0  0  0
   -4.3070    1.1900   -0.1518 C   0  0  0  0  0  0  0  0  0  0  0  0
   -2.9870    2.9402    0.7103 C   0  0  0  0  0  0  0  0  0  0  0  0
   -1.8539   -3.0831   -0.3565 C   0  0  0  0  0  0  0  0  0  0  0  0
   -0.5338   -3.3436    0.0229 C   0  0  0  0  0  0  0  0  0  0  0  0
   -4.1985    2.5183    0.2034 C   0  0  0  0  0  0  0  0  0  0  0  0
    2.0070    0.3719   -0.4165 C   0  0  2  0  0  0  0  0  0  0  0  0
    3.3676   -0.0118   -0.1677 C   0  0  0  0  0  0  0  0  0  0  0  0
    3.0939    1.1155   -1.1028 O   0  0  0  0  0  0  0  0  0  0  0  0
    2.0111    1.6929    1.3068 H   0  0  0  0  0  0  0  0  0  0  0  0
    0.8957    2.2019    0.0282 H   0  0  0  0  0  0  0  0  0  0  0  0
    5.1421   -0.0873    1.0829 H   0  0  0  0  0  0  0  0  0  0  0  0
    3.6491    0.0318    2.0082 H   0  0  0  0  0  0  0  0  0  0  0  0
    4.2242    1.4800    1.1337 H   0  0  0  0  0  0  0  0  0  0  0  0
    3.3197   -1.5972   -1.6780 H   0  0  0  0  0  0  0  0  0  0  0  0
    4.5127   -1.8538   -0.2979 H   0  0  0  0  0  0  0  0  0  0  0  0
    4.8315   -0.6525   -1.5527 H   0  0  0  0  0  0  0  0  0  0  0  0
   -4.1633   -1.3804   -0.7208 H   0  0  0  0  0  0  0  0  0  0  0  0
   -5.2335    0.7780   -0.5608 H   0  0  0  0  0  0  0  0  0  0  0  0
   -2.5458   -3.8082   -0.7621 H   0  0  0  0  0  0  0  0  0  0  0  0
   -0.0436   -4.3132   -0.0458 H   0  0  0  0  0  0  0  0  0  0  0  0
   -5.0481    3.2014    0.0830 H   0  0  0  0  0  0  0  0  0  0  0  0
    1.3860   -0.2078   -1.0991 H   0  0  0  0  0  0  0  0  0  0  0  0
  1  2  1  0
  1  6  1  0
  2 19  1  0
  3 15  2  0
  4 20  1  0
  5 20  1  0
  6  7  2  0
  6  8  1  0
  7  9  1  0
  7 10  1  0
  8 11  2  0
  8 12  1  0
  9 13  2  0
  9 14  1  0
 10 15  1  0
 11 13  1  0
 11 16  1  0
 12 17  1  0
 14 18  2  0
 15 18  1  0
 16 17  2  0
 19 20  1  0
 19 21  1  0
 20 21  1  0
  2 22  1  0
  2 23  1  0
  4 24  1  0
  4 25  1  0
  4 26  1  0
  5 27  1  0
  5 28  1  0
  5 29  1  0
 13 30  1  0
 14 31  1  0
 16 32  1  0
 17 33  1  0
 18 34  1  0
 19 35  1  6
M  END
>  <Mol_ID>  (1) 
9740

>  <Formula>  (1) 
C16H14O5

>  <MolWeight>  (1) 
286.27936

>  <Cat>  (1) 
E2211

>  <Name>  (1) 
Oxyimperatorin

>  <Synonyms>  (1) 
Prangenin, (+/-)-Heraclenin

>  <Target>  (1) 
COX, NOS, NF-¦ÊB

>  <Form>  (1) 
free base

>  <CAS>  (1) 
35740-18-2

>  <URL>  (1) 
https://www.selleckchem.com/products/oxyimperatorin.html

$$$$
