PF-6260933
     RDKit          3D

 34 36  0  0  0  0  0  0  0  0999 V2000
   -1.1983    1.1039    1.8590 C   0  0  0  0  0  0  0  0  0  0  0  0
   -1.2754    0.4685    0.6258 C   0  0  0  0  0  0  0  0  0  0  0  0
   -0.0971    0.0343    0.0066 C   0  0  0  0  0  0  0  0  0  0  0  0
    1.0838    0.2662    0.6662 C   0  0  0  0  0  0  0  0  0  0  0  0
    1.1149    0.9011    1.8904 C   0  0  0  0  0  0  0  0  0  0  0  0
   -0.0268    1.3210    2.4886 N   0  0  0  0  0  0  0  0  0  0  0  0
   -2.3935    1.5469    2.4921 N   0  0  0  0  0  0  0  0  0  0  0  0
   -2.5337    0.2444   -0.0320 C   0  0  0  0  0  0  0  0  0  0  0  0
   -3.5349    1.2030   -0.1410 C   0  0  0  0  0  0  0  0  0  0  0  0
   -4.7331    0.9435   -0.7847 C   0  0  0  0  0  0  0  0  0  0  0  0
   -4.9292   -0.3264   -1.3381 C   0  0  0  0  0  0  0  0  0  0  0  0
   -3.9501   -1.3058   -1.2469 C   0  0  0  0  0  0  0  0  0  0  0  0
   -2.7704   -1.0106   -0.5986 C   0  0  0  0  0  0  0  0  0  0  0  0
    2.3137   -1.3092   -0.6952 C   0  0  0  0  0  0  0  0  0  0  0  0
    2.3537   -0.1565    0.0865 C   0  0  0  0  0  0  0  0  0  0  0  0
    3.5381    0.5263    0.2848 C   0  0  0  0  0  0  0  0  0  0  0  0
    4.7045    0.0707   -0.2939 C   0  0  0  0  0  0  0  0  0  0  0  0
    4.6288   -1.0706   -1.0598 C   0  0  0  0  0  0  0  0  0  0  0  0
    3.4733   -1.7251   -1.2452 N   0  0  0  0  0  0  0  0  0  0  0  0
    5.7943   -1.5919   -1.6823 N   0  0  0  0  0  0  0  0  0  0  0  0
   -0.0938   -0.4622   -0.9463 H   0  0  0  0  0  0  0  0  0  0  0  0
    2.0692    1.0794    2.4064 H   0  0  0  0  0  0  0  0  0  0  0  0
   -3.1103    0.8463    2.8389 H   0  0  0  0  0  0  0  0  0  0  0  0
   -2.5542    2.5711    2.6099 H   0  0  0  0  0  0  0  0  0  0  0  0
   -3.3673    2.1889    0.2951 H   0  0  0  0  0  0  0  0  0  0  0  0
   -5.4850    1.7128   -0.8473 H   0  0  0  0  0  0  0  0  0  0  0  0
   -5.8774   -0.5338   -1.8502 H   0  0  0  0  0  0  0  0  0  0  0  0
   -4.1668   -2.2650   -1.6963 H   0  0  0  0  0  0  0  0  0  0  0  0
   -2.0362   -1.8079   -0.5529 H   0  0  0  0  0  0  0  0  0  0  0  0
    1.4327   -1.8725   -0.8809 H   0  0  0  0  0  0  0  0  0  0  0  0
    3.5480    1.4164    0.8941 H   0  0  0  0  0  0  0  0  0  0  0  0
    5.6603    0.5568   -0.1787 H   0  0  0  0  0  0  0  0  0  0  0  0
    6.1292   -1.1998   -2.6069 H   0  0  0  0  0  0  0  0  0  0  0  0
    6.2889   -2.3642   -1.1896 H   0  0  0  0  0  0  0  0  0  0  0  0
  1  2  2  0
  1  6  1  0
  1  7  1  0
  2  3  1  0
  2  8  1  0
  3  4  2  0
  4  5  1  0
  4 15  1  0
  5  6  2  0
  8  9  2  0
  8 13  1  0
  9 10  1  0
 10 11  2  0
 11 12  1  0
 12 13  2  0
 14 15  2  0
 14 19  1  0
 15 16  1  0
 16 17  2  0
 17 18  1  0
 18 19  2  0
 18 20  1  0
  3 21  1  0
  5 22  1  0
  7 23  1  0
  7 24  1  0
  9 25  1  0
 10 26  1  0
 11 27  1  0
 12 28  1  0
 13 29  1  0
 14 30  1  0
 16 31  1  0
 17 32  1  0
 20 33  1  0
 20 34  1  0
M  END
>  <Mol_ID>  (1) 
3802

>  <Formula>  (1) 
C16H13ClN4

>  <MolWeight>  (1) 
296.75422

>  <Cat>  (1) 
S6499

>  <Name>  (1) 
PF-6260933

>  <Synonyms>  (1) 
PF-06260933

>  <Target>  (1) 
MAP4K

>  <Form>  (1) 
free base

>  <CAS>  (1) 
1811510-56-1

>  <URL>  (1) 
http://www.selleck.cn/products/pf-6260933.html

$$$$
