PIK-294.cdx
     RDKit          3D

 60 65  0  0  0  0  0  0  0  0999 V2000
    1.8933   -3.8228   -0.7852 N   0  0  0  0  0  0  0  0  0  0  0  0
    0.7992   -3.7749   -0.0049 C   0  0  0  0  0  0  0  0  0  0  0  0
    0.4605   -2.6538    0.6526 N   0  0  0  0  0  0  0  0  0  0  0  0
    1.2009   -1.5551    0.5496 C   0  0  0  0  0  0  0  0  0  0  0  0
    2.3262   -1.5738   -0.2421 C   0  0  0  0  0  0  0  0  0  0  0  0
    2.6475   -2.7154   -0.8943 C   0  0  0  0  0  0  0  0  0  0  0  0
    1.1085   -0.3285    1.0886 N   0  0  0  0  0  0  0  0  0  0  0  0
    2.1291    0.3919    0.6553 N   0  0  0  0  0  0  0  0  0  0  0  0
    2.8966   -0.3430   -0.1653 C   0  0  0  0  0  0  0  0  0  0  0  0
    3.8097   -2.7856   -1.7048 N   0  0  0  0  0  0  0  0  0  0  0  0
    0.1050    0.2151    1.9888 C   0  0  0  0  0  0  0  0  0  0  0  0
    4.1027    0.1843   -0.7868 C   0  0  0  0  0  0  0  0  0  0  0  0
    5.0550    0.8161    0.0044 C   0  0  0  0  0  0  0  0  0  0  0  0
    6.2101    1.3615   -0.5157 C   0  0  0  0  0  0  0  0  0  0  0  0
    6.4660    1.2992   -1.8572 C   0  0  0  0  0  0  0  0  0  0  0  0
    5.5320    0.6764   -2.6575 C   0  0  0  0  0  0  0  0  0  0  0  0
    4.3685    0.1273   -2.1338 C   0  0  0  0  0  0  0  0  0  0  0  0
    7.1619    1.9948    0.2875 O   0  0  0  0  0  0  0  0  0  0  0  0
   -1.0171    0.8788    1.3144 C   0  0  0  0  0  0  0  0  0  0  0  0
   -2.2015    0.3154    1.0462 N   0  0  0  0  0  0  0  0  0  0  0  0
   -3.2064    0.9800    0.4094 C   0  0  0  0  0  0  0  0  0  0  0  0
   -3.0169    2.2786    0.0196 C   0  0  0  0  0  0  0  0  0  0  0  0
   -1.7877    2.8469    0.3041 C   0  0  0  0  0  0  0  0  0  0  0  0
   -0.8096    2.1761    0.9324 N   0  0  0  0  0  0  0  0  0  0  0  0
   -4.3136    0.4509    0.1594 O   0  0  0  0  0  0  0  0  0  0  0  0
   -2.4872   -1.0212    1.4210 C   0  0  0  0  0  0  0  0  0  0  0  0
   -2.7254   -1.9760    0.4273 C   0  0  0  0  0  0  0  0  0  0  0  0
   -3.0148   -3.2945    0.7610 C   0  0  0  0  0  0  0  0  0  0  0  0
   -3.0767   -3.7054    2.0814 C   0  0  0  0  0  0  0  0  0  0  0  0
   -2.8430   -2.7695    3.0682 C   0  0  0  0  0  0  0  0  0  0  0  0
   -2.5543   -1.4531    2.7291 C   0  0  0  0  0  0  0  0  0  0  0  0
   -3.9697    3.0371   -0.6301 C   0  0  0  0  0  0  0  0  0  0  0  0
   -3.7021    4.3540   -0.9952 C   0  0  0  0  0  0  0  0  0  0  0  0
   -2.4720    4.9005   -0.7026 C   0  0  0  0  0  0  0  0  0  0  0  0
   -1.5049    4.1658   -0.0558 C   0  0  0  0  0  0  0  0  0  0  0  0
   -5.2886    2.4226   -0.9337 C   0  0  0  0  0  0  0  0  0  0  0  0
   -2.6843   -1.6501   -1.0137 C   0  0  0  0  0  0  0  0  0  0  0  0
    0.2126   -4.6788    0.0638 H   0  0  0  0  0  0  0  0  0  0  0  0
    3.7812   -2.7348   -2.7559 H   0  0  0  0  0  0  0  0  0  0  0  0
    4.7216   -2.8928   -1.2022 H   0  0  0  0  0  0  0  0  0  0  0  0
   -0.1800   -0.6306    2.6461 H   0  0  0  0  0  0  0  0  0  0  0  0
    0.6197    0.9380    2.6540 H   0  0  0  0  0  0  0  0  0  0  0  0
    4.9079    0.8976    1.0821 H   0  0  0  0  0  0  0  0  0  0  0  0
    7.3663    1.7202   -2.2881 H   0  0  0  0  0  0  0  0  0  0  0  0
    5.7320    0.6246   -3.7266 H   0  0  0  0  0  0  0  0  0  0  0  0
    3.6957   -0.3203   -2.8234 H   0  0  0  0  0  0  0  0  0  0  0  0
    7.5007    1.5137    1.1073 H   0  0  0  0  0  0  0  0  0  0  0  0
   -3.2029   -4.0497   -0.0096 H   0  0  0  0  0  0  0  0  0  0  0  0
   -3.3011   -4.7286    2.3478 H   0  0  0  0  0  0  0  0  0  0  0  0
   -2.8824   -3.0533    4.1251 H   0  0  0  0  0  0  0  0  0  0  0  0
   -2.3868   -0.7755    3.5274 H   0  0  0  0  0  0  0  0  0  0  0  0
   -4.4481    4.9606   -1.5085 H   0  0  0  0  0  0  0  0  0  0  0  0
   -2.2085    5.9273   -0.9656 H   0  0  0  0  0  0  0  0  0  0  0  0
   -0.5352    4.6062    0.1715 H   0  0  0  0  0  0  0  0  0  0  0  0
   -5.9290    3.1983   -1.4490 H   0  0  0  0  0  0  0  0  0  0  0  0
   -5.2384    1.5932   -1.6579 H   0  0  0  0  0  0  0  0  0  0  0  0
   -5.8625    2.1927   -0.0085 H   0  0  0  0  0  0  0  0  0  0  0  0
   -2.2319   -0.6712   -1.2412 H   0  0  0  0  0  0  0  0  0  0  0  0
   -2.0249   -2.4166   -1.4875 H   0  0  0  0  0  0  0  0  0  0  0  0
   -3.7025   -1.6710   -1.4772 H   0  0  0  0  0  0  0  0  0  0  0  0
  1  2  2  0
  2  3  1  0
  3  4  2  0
  4  5  1  0
  4  7  1  0
  5  6  2  0
  6  1  1  0
  6 10  1  0
  7  8  1  0
  7 11  1  0
  8  9  2  0
  9  5  1  0
  9 12  1  0
 11 19  1  0
 12 13  2  0
 13 14  1  0
 14 15  2  0
 14 18  1  0
 15 16  1  0
 16 17  2  0
 17 12  1  0
 19 20  1  0
 20 21  1  0
 20 26  1  0
 21 22  1  0
 21 25  2  0
 22 23  2  0
 22 32  1  0
 23 24  1  0
 24 19  2  0
 26 27  2  0
 27 28  1  0
 27 37  1  0
 28 29  2  0
 29 30  1  0
 30 31  2  0
 31 26  1  0
 32 33  2  0
 32 36  1  0
 33 34  1  0
 34 35  2  0
 35 23  1  0
  2 38  1  0
 10 39  1  0
 10 40  1  0
 11 41  1  0
 11 42  1  0
 13 43  1  0
 15 44  1  0
 16 45  1  0
 17 46  1  0
 18 47  1  0
 28 48  1  0
 29 49  1  0
 30 50  1  0
 31 51  1  0
 33 52  1  0
 34 53  1  0
 35 54  1  0
 36 55  1  0
 36 56  1  0
 36 57  1  0
 37 58  1  0
 37 59  1  0
 37 60  1  0
M  END
>  <Mol_ID>  (1) 
800

>  <Formula>  (1) 
C28H23N7O2

>  <MolWeight>  (1) 
489.52792

>  <Cat>  (1) 
S2227

>  <Name>  (1) 
PIK-294

>  <Synonyms>  (1) 
N/A

>  <Target>  (1) 
PI3K

>  <Form>  (1) 
free base

>  <CAS>  (1) 
900185-02-6

>  <URL>  (1) 
http://selleckchem.com/products/PIK-294.html

$$$$
