Pranlukast.cdx
     RDKit          3D

 59 63  0  0  0  0  0  0  0  0999 V2000
    7.1138   -0.5448    1.3731 C   0  0  0  0  0  0  0  0  0  0  0  0
    6.4388   -0.3168    0.1908 C   0  0  0  0  0  0  0  0  0  0  0  0
    5.0826   -0.5796    0.0420 C   0  0  0  0  0  0  0  0  0  0  0  0
    4.3705   -1.0883    1.1086 C   0  0  0  0  0  0  0  0  0  0  0  0
    5.0341   -1.3242    2.3071 C   0  0  0  0  0  0  0  0  0  0  0  0
    6.3932   -1.0584    2.4489 C   0  0  0  0  0  0  0  0  0  0  0  0
    8.4773   -0.2725    1.4977 C   0  0  0  0  0  0  0  0  0  0  0  0
    9.1574    0.2364    0.4077 C   0  0  0  0  0  0  0  0  0  0  0  0
    8.4204    0.4420   -0.7494 C   0  0  0  0  0  0  0  0  0  0  0  0
    7.1502    0.1690   -0.8056 O   0  0  0  0  0  0  0  0  0  0  0  0
    9.0131   -0.5045    2.5934 O   0  0  0  0  0  0  0  0  0  0  0  0
    9.0957    0.9779   -1.9260 C   0  0  0  0  0  0  0  0  0  0  0  0
   10.3928    1.3138   -2.0445 N   0  0  0  0  0  0  0  0  0  0  0  0
   10.6331    1.7607   -3.2541 N   0  0  0  0  0  0  0  0  0  0  0  0
    9.4949    1.7214   -3.9391 N   0  0  0  0  0  0  0  0  0  0  0  0
    8.5538    1.2443   -3.1325 N   0  0  0  0  0  0  0  0  0  0  0  0
    2.9716   -1.3666    0.9769 N   0  0  0  0  0  0  0  0  0  0  0  0
    1.9622   -0.4229    1.2595 C   0  0  0  0  0  0  0  0  0  0  0  0
    0.5402   -0.7145    1.1228 C   0  0  0  0  0  0  0  0  0  0  0  0
    2.2731    0.7323    1.6496 O   0  0  0  0  0  0  0  0  0  0  0  0
   -0.3751    0.2732    1.4230 C   0  0  0  0  0  0  0  0  0  0  0  0
   -1.7398    0.0923    1.3246 C   0  0  0  0  0  0  0  0  0  0  0  0
   -2.1940   -1.1392    0.9049 C   0  0  0  0  0  0  0  0  0  0  0  0
   -1.3002   -2.1680    0.5904 C   0  0  0  0  0  0  0  0  0  0  0  0
    0.0539   -1.9361    0.7055 C   0  0  0  0  0  0  0  0  0  0  0  0
   -3.5396   -1.4512    0.7637 O   0  0  0  0  0  0  0  0  0  0  0  0
   -4.4884   -0.4411    1.0704 C   0  0  0  0  0  0  0  0  0  0  0  0
   -5.8995   -0.9103    0.8754 C   0  0  0  0  0  0  0  0  0  0  0  0
   -6.2066   -1.3330   -0.5174 C   0  0  0  0  0  0  0  0  0  0  0  0
   -6.0809   -0.2948   -1.5744 C   0  0  0  0  0  0  0  0  0  0  0  0
   -6.9592    0.8678   -1.4451 C   0  0  0  0  0  0  0  0  0  0  0  0
   -6.6779    2.0396   -0.8057 C   0  0  0  0  0  0  0  0  0  0  0  0
   -7.5661    3.1041   -0.7177 C   0  0  0  0  0  0  0  0  0  0  0  0
   -8.8194    2.9957   -1.3060 C   0  0  0  0  0  0  0  0  0  0  0  0
   -9.1267    1.8186   -1.9592 C   0  0  0  0  0  0  0  0  0  0  0  0
   -8.2276    0.7740   -2.0336 C   0  0  0  0  0  0  0  0  0  0  0  0
    4.5770   -0.3933   -0.8914 H   0  0  0  0  0  0  0  0  0  0  0  0
    4.4692   -1.7255    3.1465 H   0  0  0  0  0  0  0  0  0  0  0  0
    6.8904   -1.2559    3.4106 H   0  0  0  0  0  0  0  0  0  0  0  0
   10.2014    0.4460    0.4993 H   0  0  0  0  0  0  0  0  0  0  0  0
    7.5528    1.1109   -3.4297 H   0  0  0  0  0  0  0  0  0  0  0  0
    2.7282   -2.3281    0.6526 H   0  0  0  0  0  0  0  0  0  0  0  0
   -0.0515    1.2608    1.7585 H   0  0  0  0  0  0  0  0  0  0  0  0
   -2.4659    0.8610    1.5579 H   0  0  0  0  0  0  0  0  0  0  0  0
   -1.6516   -3.1241    0.2646 H   0  0  0  0  0  0  0  0  0  0  0  0
    0.7397   -2.7317    0.4622 H   0  0  0  0  0  0  0  0  0  0  0  0
   -4.4042   -0.1778    2.1623 H   0  0  0  0  0  0  0  0  0  0  0  0
   -4.3212    0.4731    0.4750 H   0  0  0  0  0  0  0  0  0  0  0  0
   -6.0492   -1.7685    1.5550 H   0  0  0  0  0  0  0  0  0  0  0  0
   -6.5463   -0.0364    1.1841 H   0  0  0  0  0  0  0  0  0  0  0  0
   -7.1777   -1.8916   -0.5765 H   0  0  0  0  0  0  0  0  0  0  0  0
   -5.4459   -2.1286   -0.7783 H   0  0  0  0  0  0  0  0  0  0  0  0
   -6.3083   -0.8120   -2.5533 H   0  0  0  0  0  0  0  0  0  0  0  0
   -5.0064   -0.0192   -1.6547 H   0  0  0  0  0  0  0  0  0  0  0  0
   -5.7217    2.1760   -0.3374 H   0  0  0  0  0  0  0  0  0  0  0  0
   -7.3159    4.0227   -0.2034 H   0  0  0  0  0  0  0  0  0  0  0  0
   -9.5191    3.8153   -1.2452 H   0  0  0  0  0  0  0  0  0  0  0  0
  -10.0851    1.6753   -2.4360 H   0  0  0  0  0  0  0  0  0  0  0  0
   -8.5101   -0.1445   -2.5618 H   0  0  0  0  0  0  0  0  0  0  0  0
  1  2  1  0
  1  7  1  0
  2  3  2  0
  3  4  1  0
  4  5  2  0
  4 17  1  0
  5  6  1  0
  6  1  2  0
  7  8  1  0
  7 11  2  0
  8  9  2  0
  9 10  1  0
  9 12  1  0
 10  2  1  0
 12 13  2  0
 13 14  1  0
 14 15  2  0
 15 16  1  0
 16 12  1  0
 17 18  1  0
 18 19  1  0
 18 20  2  0
 19 21  2  0
 21 22  1  0
 22 23  2  0
 23 24  1  0
 23 26  1  0
 24 25  2  0
 25 19  1  0
 26 27  1  0
 27 28  1  0
 28 29  1  0
 29 30  1  0
 30 31  1  0
 31 32  2  0
 32 33  1  0
 33 34  2  0
 34 35  1  0
 35 36  2  0
 36 31  1  0
  3 37  1  0
  5 38  1  0
  6 39  1  0
  8 40  1  0
 16 41  1  0
 17 42  1  0
 21 43  1  0
 22 44  1  0
 24 45  1  0
 25 46  1  0
 27 47  1  0
 27 48  1  0
 28 49  1  0
 28 50  1  0
 29 51  1  0
 29 52  1  0
 30 53  1  0
 30 54  1  0
 32 55  1  0
 33 56  1  0
 34 57  1  0
 35 58  1  0
 36 59  1  0
M  END
>  <Mol_ID>  (1) 
1110

>  <Formula>  (1) 
C27H23N5O4

>  <MolWeight>  (1) 
481.50262

>  <Cat>  (1) 
S1829

>  <Name>  (1) 
Pranlukast

>  <Synonyms>  (1) 
ONO-1078,ono-rs-411

>  <Target>  (1) 
Immunology & Inflammation related

>  <Form>  (1) 
free base

>  <CAS>  (1) 
103177-37-3

>  <URL>  (1) 
http://selleckchem.com/products/pranlukast.html

$$$$
