S3862 Gallic acid trimethyl ether.cdx
     RDKit          3D

 27 27  0  0  0  0  0  0  0  0999 V2000
    0.3930   -1.0066   -0.1319 C   0  0  0  0  0  0  0  0  0  0  0  0
    1.2331    0.0929    0.0710 C   0  0  0  0  0  0  0  0  0  0  0  0
   -0.9673   -0.8781    0.1520 C   0  0  0  0  0  0  0  0  0  0  0  0
    0.9016   -2.2143   -0.6100 O   0  0  0  0  0  0  0  0  0  0  0  0
    0.7037    1.2803    0.5464 C   0  0  0  0  0  0  0  0  0  0  0  0
    2.5614   -0.0872   -0.2237 O   0  0  0  0  0  0  0  0  0  0  0  0
   -1.4791    0.3142    0.6257 C   0  0  0  0  0  0  0  0  0  0  0  0
   -1.7450   -2.0055   -0.0710 O   0  0  0  0  0  0  0  0  0  0  0  0
    0.9335   -2.4106   -2.0106 C   0  0  0  0  0  0  0  0  0  0  0  0
   -0.6533    1.4023    0.8275 C   0  0  0  0  0  0  0  0  0  0  0  0
    3.5690    0.8717   -0.0958 C   0  0  0  0  0  0  0  0  0  0  0  0
   -3.1275   -1.9226    0.2022 C   0  0  0  0  0  0  0  0  0  0  0  0
   -1.2041    2.6464    1.3249 C   0  0  0  0  0  0  0  0  0  0  0  0
   -0.4049    3.7528    1.5373 O   0  0  0  0  0  0  0  0  0  0  0  0
   -2.4330    2.7474    1.5765 O   0  0  0  0  0  0  0  0  0  0  0  0
    1.3733    2.1368    0.7017 H   0  0  0  0  0  0  0  0  0  0  0  0
   -2.5181    0.4021    0.8392 H   0  0  0  0  0  0  0  0  0  0  0  0
    0.6780   -1.4719   -2.5668 H   0  0  0  0  0  0  0  0  0  0  0  0
    0.1416   -3.1527   -2.3084 H   0  0  0  0  0  0  0  0  0  0  0  0
    1.9004   -2.7584   -2.3778 H   0  0  0  0  0  0  0  0  0  0  0  0
    3.6005    1.2372    0.9706 H   0  0  0  0  0  0  0  0  0  0  0  0
    4.5487    0.3743   -0.2898 H   0  0  0  0  0  0  0  0  0  0  0  0
    3.3654    1.6985   -0.7709 H   0  0  0  0  0  0  0  0  0  0  0  0
   -3.5970   -2.9474    0.2282 H   0  0  0  0  0  0  0  0  0  0  0  0
   -3.6021   -1.3660   -0.6551 H   0  0  0  0  0  0  0  0  0  0  0  0
   -3.3792   -1.4215    1.1468 H   0  0  0  0  0  0  0  0  0  0  0  0
   -0.7927    4.6857    1.3618 H   0  0  0  0  0  0  0  0  0  0  0  0
  1  2  2  0
  1  3  1  0
  1  4  1  0
  2  5  1  0
  2  6  1  0
  3  7  2  0
  3  8  1  0
  4  9  1  0
  5 10  2  0
  6 11  1  0
  7 10  1  0
  8 12  1  0
 10 13  1  0
 13 14  1  0
 13 15  2  0
  5 16  1  0
  7 17  1  0
  9 18  1  0
  9 19  1  0
  9 20  1  0
 11 21  1  0
 11 22  1  0
 11 23  1  0
 12 24  1  0
 12 25  1  0
 12 26  1  0
 14 27  1  0
M  END
>  <Mol_ID>  (1) 
1911

>  <Formula>  (1) 
C10H12O5

>  <MolWeight>  (1) 
212.19928

>  <Cat>  (1) 
S3862

>  <Name>  (1) 
Gallic acid trimethyl ether

>  <Synonyms>  (1) 
Eudesmic acid, Tri-O-methylgallic acid, Benzoic acid, 3,4,5-Trimethoxybenzoic acid

>  <Target>  (1) 
Others

>  <Form>  (1) 
free base

>  <CAS>  (1) 
118-41-2

>  <URL>  (1) 
http://selleckchem.com/products/gallic-acid-trimethyl-ether.html

$$$$
