S3896 DACH-BOC.cdx
     RDKit          3D

 37 37  0  0  0  0  0  0  0  0999 V2000
   -0.9849    0.1931   -0.1336 C   0  0  0  0  0  0  0  0  0  0  0  0
    0.2537    0.6012   -0.7407 N   0  0  0  0  0  0  0  0  0  0  0  0
    1.4809    0.2716   -0.0865 C   0  0  1  0  0  0  0  0  0  0  0  0
   -2.2000    0.4863   -0.7247 O   0  0  0  0  0  0  0  0  0  0  0  0
   -1.0195   -0.4435    0.9531 O   0  0  0  0  0  0  0  0  0  0  0  0
   -3.3758    0.0561   -0.0751 C   0  0  0  0  0  0  0  0  0  0  0  0
    2.3179   -0.6313   -0.9395 C   0  0  2  0  0  0  0  0  0  0  0  0
    1.6520   -1.9296   -0.9775 N   0  0  0  0  0  0  0  0  0  0  0  0
    2.2270    1.5044    0.3726 C   0  0  0  0  0  0  0  0  0  0  0  0
    3.6966   -0.8534   -0.4190 C   0  0  0  0  0  0  0  0  0  0  0  0
    3.4202    0.9752    1.1571 C   0  0  0  0  0  0  0  0  0  0  0  0
    4.3415    0.4006    0.1188 C   0  0  0  0  0  0  0  0  0  0  0  0
   -3.4765    0.6653    1.3059 C   0  0  0  0  0  0  0  0  0  0  0  0
   -4.5378    0.5163   -0.9556 C   0  0  0  0  0  0  0  0  0  0  0  0
   -3.4851   -1.4355    0.0682 C   0  0  0  0  0  0  0  0  0  0  0  0
    0.2516    1.1322   -1.6494 H   0  0  0  0  0  0  0  0  0  0  0  0
    1.2271   -0.2850    0.8464 H   0  0  0  0  0  0  0  0  0  0  0  0
    2.3498   -0.2813   -2.0060 H   0  0  0  0  0  0  0  0  0  0  0  0
    2.0863   -2.5746   -0.2589 H   0  0  0  0  0  0  0  0  0  0  0  0
    0.6286   -1.8533   -0.7376 H   0  0  0  0  0  0  0  0  0  0  0  0
    1.5237    2.0800    0.9946 H   0  0  0  0  0  0  0  0  0  0  0  0
    2.6161    2.1000   -0.4762 H   0  0  0  0  0  0  0  0  0  0  0  0
    4.3245   -1.2977   -1.2115 H   0  0  0  0  0  0  0  0  0  0  0  0
    3.6328   -1.6013    0.4070 H   0  0  0  0  0  0  0  0  0  0  0  0
    3.0093    0.1588    1.7876 H   0  0  0  0  0  0  0  0  0  0  0  0
    3.8949    1.7539    1.7795 H   0  0  0  0  0  0  0  0  0  0  0  0
    4.3626    1.1491   -0.7249 H   0  0  0  0  0  0  0  0  0  0  0  0
    5.3418    0.1799    0.4778 H   0  0  0  0  0  0  0  0  0  0  0  0
   -3.0480    0.0185    2.0887 H   0  0  0  0  0  0  0  0  0  0  0  0
   -2.9092    1.6347    1.3622 H   0  0  0  0  0  0  0  0  0  0  0  0
   -4.5178    0.9342    1.5363 H   0  0  0  0  0  0  0  0  0  0  0  0
   -5.3739    0.7128   -0.2786 H   0  0  0  0  0  0  0  0  0  0  0  0
   -4.7726   -0.3005   -1.6383 H   0  0  0  0  0  0  0  0  0  0  0  0
   -4.2741    1.4422   -1.5062 H   0  0  0  0  0  0  0  0  0  0  0  0
   -4.5416   -1.7497   -0.1060 H   0  0  0  0  0  0  0  0  0  0  0  0
   -3.2474   -1.7895    1.0939 H   0  0  0  0  0  0  0  0  0  0  0  0
   -2.8750   -1.9403   -0.7039 H   0  0  0  0  0  0  0  0  0  0  0  0
  2  1  1  0
  3  2  1  0
  4  1  1  0
  5  1  2  0
  6  4  1  0
  6 13  1  0
  6 14  1  0
  6 15  1  0
  7  3  1  0
  7  8  1  0
  9  3  1  0
 10  7  1  0
 11  9  1  0
 12 10  1  0
 12 11  1  0
  2 16  1  0
  3 17  1  1
  7 18  1  6
  8 19  1  0
  8 20  1  0
  9 21  1  0
  9 22  1  0
 10 23  1  0
 10 24  1  0
 11 25  1  0
 11 26  1  0
 12 27  1  0
 12 28  1  0
 13 29  1  0
 13 30  1  0
 13 31  1  0
 14 32  1  0
 14 33  1  0
 14 34  1  0
 15 35  1  0
 15 36  1  0
 15 37  1  0
M  END
>  <Mol_ID>  (1) 
1930

>  <Formula>  (1) 
C11H22N2O2

>  <MolWeight>  (1) 
214.30458

>  <Cat>  (1) 
S3896

>  <Name>  (1) 
(1R,2R)-trans-N-Boc-1,2-cyclohexanediamine

>  <Synonyms>  (1) 
N/A

>  <Target>  (1) 
Others

>  <Form>  (1) 
free base

>  <CAS>  (1) 
146504-07-6

>  <URL>  (1) 
http://selleckchem.com/products/1r-2r-trans-n-boc-1-2-cyclohexanediamine.html

$$$$
