S5053 Imazalil.cdx
     RDKit          3D

 33 34  0  0  0  0  0  0  0  0999 V2000
   -0.9707   -0.1658   -0.1098 C   0  0  0  0  0  0  0  0  0  0  0  0
    0.4926   -0.2072   -0.0062 C   0  0  1  0  0  0  0  0  0  0  0  0
   -1.6538    0.2091   -1.2629 C   0  0  0  0  0  0  0  0  0  0  0  0
   -1.7044   -0.5242    1.0165 C   0  0  0  0  0  0  0  0  0  0  0  0
    1.0854    0.9868    0.6819 C   0  0  0  0  0  0  0  0  0  0  0  0
    0.8910   -1.3629    0.6117 O   0  0  0  0  0  0  0  0  0  0  0  0
   -3.0429    0.2118   -1.2475 C   0  0  0  0  0  0  0  0  0  0  0  0
   -3.0840   -0.5216    1.0321 C   0  0  0  0  0  0  0  0  0  0  0  0
    0.7439    2.2116   -0.0509 N   0  0  0  0  0  0  0  0  0  0  0  0
    1.6839   -2.1800   -0.1816 C   0  0  0  0  0  0  0  0  0  0  0  0
   -3.7519   -0.1485   -0.1158 C   0  0  0  0  0  0  0  0  0  0  0  0
    2.0283   -3.3829    0.6304 C   0  0  0  0  0  0  0  0  0  0  0  0
    3.2771   -3.7263    0.9271 C   0  0  0  0  0  0  0  0  0  0  0  0
    1.4345    2.7960   -1.0441 C   0  0  0  0  0  0  0  0  0  0  0  0
    0.7955    3.9052   -1.4592 N   0  0  0  0  0  0  0  0  0  0  0  0
   -0.3223    3.9916   -0.6864 C   0  0  0  0  0  0  0  0  0  0  0  0
   -0.3770    2.9487    0.1981 C   0  0  0  0  0  0  0  0  0  0  0  0
    0.9206   -0.2006   -1.0454 H   0  0  0  0  0  0  0  0  0  0  0  0
   -1.0859    0.4885   -2.1408 H   0  0  0  0  0  0  0  0  0  0  0  0
   -1.1890   -0.8225    1.9346 H   0  0  0  0  0  0  0  0  0  0  0  0
    0.7835    1.1257    1.7224 H   0  0  0  0  0  0  0  0  0  0  0  0
    2.1866    0.8671    0.6161 H   0  0  0  0  0  0  0  0  0  0  0  0
   -3.5911    0.5039   -2.1457 H   0  0  0  0  0  0  0  0  0  0  0  0
   -3.6379   -0.8039    1.9189 H   0  0  0  0  0  0  0  0  0  0  0  0
    1.2152   -2.5343   -1.1017 H   0  0  0  0  0  0  0  0  0  0  0  0
    2.6637   -1.6730   -0.4099 H   0  0  0  0  0  0  0  0  0  0  0  0
   -4.8350   -0.1364   -0.1349 H   0  0  0  0  0  0  0  0  0  0  0  0
    1.2249   -3.9865    0.9830 H   0  0  0  0  0  0  0  0  0  0  0  0
    3.4864   -4.6256    1.5315 H   0  0  0  0  0  0  0  0  0  0  0  0
    4.1469   -3.1660    0.6069 H   0  0  0  0  0  0  0  0  0  0  0  0
    2.3696    2.4567   -1.4745 H   0  0  0  0  0  0  0  0  0  0  0  0
   -1.0722    4.7694   -0.7500 H   0  0  0  0  0  0  0  0  0  0  0  0
   -1.1115    2.6960    0.9561 H   0  0  0  0  0  0  0  0  0  0  0  0
  1  2  1  0
  1  3  2  0
  1  4  1  0
  2  5  1  0
  2  6  1  0
  3  7  1  0
  4  8  2  0
  5  9  1  0
  6 10  1  0
  7 11  2  0
  8 11  1  0
  9 14  1  0
 10 12  1  0
 12 13  2  0
 14 15  2  0
 15 16  1  0
 16 17  2  0
 17  9  1  0
  2 18  1  6
  3 19  1  0
  4 20  1  0
  5 21  1  0
  5 22  1  0
  7 23  1  0
  8 24  1  0
 10 25  1  0
 10 26  1  0
 11 27  1  0
 12 28  1  0
 13 29  1  0
 13 30  1  0
 14 31  1  0
 16 32  1  0
 17 33  1  0
M  END
>  <Mol_ID>  (1) 
2867

>  <Formula>  (1) 
C14H14Cl2N2O

>  <MolWeight>  (1) 
297.17976

>  <Cat>  (1) 
S5053

>  <Name>  (1) 
Imazalil

>  <Synonyms>  (1) 
Enilconazole, Chloramizole

>  <Target>  (1) 
Others

>  <Form>  (1) 
free base

>  <CAS>  (1) 
35554-44-0

>  <URL>  (1) 
http://selleckchem.com/products/imazalil.html

$$$$
