S5079 Sitagliptin.cdx
     RDKit          3D

 43 45  0  0  0  0  0  0  0  0999 V2000
    5.7931   -0.7774   -0.0111 C   0  0  0  0  0  0  0  0  0  0  0  0
    4.5824   -0.3908   -0.4001 N   0  0  0  0  0  0  0  0  0  0  0  0
    3.9185   -1.5256   -0.7490 C   0  0  0  0  0  0  0  0  0  0  0  0
    5.9195   -2.1144   -0.1009 N   0  0  0  0  0  0  0  0  0  0  0  0
    4.7588   -2.5837   -0.5584 N   0  0  0  0  0  0  0  0  0  0  0  0
    6.8670    0.1231    0.4604 C   0  0  0  0  0  0  0  0  0  0  0  0
    1.8052   -0.4532   -0.4662 N   0  0  0  0  0  0  0  0  0  0  0  0
    0.3930   -0.5871   -0.3806 C   0  0  0  0  0  0  0  0  0  0  0  0
    2.5165   -1.4512   -1.2367 C   0  0  0  0  0  0  0  0  0  0  0  0
   -0.4299    0.3965    0.3940 C   0  0  0  0  0  0  0  0  0  0  0  0
   -4.0963    0.6935    1.0625 C   0  0  0  0  0  0  0  0  0  0  0  0
    3.8525    0.8464   -0.5341 C   0  0  0  0  0  0  0  0  0  0  0  0
   -6.1713    0.5870   -0.0542 C   0  0  0  0  0  0  0  0  0  0  0  0
   -4.8475    0.9610   -0.0680 C   0  0  0  0  0  0  0  0  0  0  0  0
   -6.7892   -0.0304    1.0038 C   0  0  0  0  0  0  0  0  0  0  0  0
   -6.0343   -0.2997    2.1413 C   0  0  0  0  0  0  0  0  0  0  0  0
   -4.7103    0.0698    2.1378 C   0  0  0  0  0  0  0  0  0  0  0  0
    2.5232    0.6329    0.1864 C   0  0  0  0  0  0  0  0  0  0  0  0
   -2.6625    1.0560    1.1262 C   0  0  0  0  0  0  0  0  0  0  0  0
   -0.2472   -1.5237   -0.9400 O   0  0  0  0  0  0  0  0  0  0  0  0
   -1.8928    0.0124    0.3188 C   0  0  1  0  0  0  0  0  0  0  0  0
    6.5750    1.4391    0.2760 F   0  0  0  0  0  0  0  0  0  0  0  0
    7.1078   -0.0720    1.8168 F   0  0  0  0  0  0  0  0  0  0  0  0
    8.0368   -0.1664   -0.2463 F   0  0  0  0  0  0  0  0  0  0  0  0
   -4.3431    1.5671   -1.1598 F   0  0  0  0  0  0  0  0  0  0  0  0
   -8.1093   -0.3727    0.9440 F   0  0  0  0  0  0  0  0  0  0  0  0
   -6.6345   -0.9096    3.1926 F   0  0  0  0  0  0  0  0  0  0  0  0
   -2.3246   -0.0854   -1.0420 N   0  0  0  0  0  0  0  0  0  0  0  0
    2.0387   -2.4309   -1.1980 H   0  0  0  0  0  0  0  0  0  0  0  0
    2.5717   -1.0960   -2.3032 H   0  0  0  0  0  0  0  0  0  0  0  0
   -0.0616    0.4206    1.4362 H   0  0  0  0  0  0  0  0  0  0  0  0
   -0.2924    1.4048   -0.0313 H   0  0  0  0  0  0  0  0  0  0  0  0
    4.3241    1.7098   -0.0571 H   0  0  0  0  0  0  0  0  0  0  0  0
    3.6078    1.0039   -1.6089 H   0  0  0  0  0  0  0  0  0  0  0  0
   -6.7726    0.7960   -0.9487 H   0  0  0  0  0  0  0  0  0  0  0  0
   -4.1463   -0.1543    3.0438 H   0  0  0  0  0  0  0  0  0  0  0  0
    1.9699    1.6077    0.0843 H   0  0  0  0  0  0  0  0  0  0  0  0
    2.7134    0.3569    1.2265 H   0  0  0  0  0  0  0  0  0  0  0  0
   -2.4765    2.0725    0.7297 H   0  0  0  0  0  0  0  0  0  0  0  0
   -2.3542    1.0328    2.1860 H   0  0  0  0  0  0  0  0  0  0  0  0
   -1.9978   -0.9918    0.7679 H   0  0  0  0  0  0  0  0  0  0  0  0
   -2.8556   -0.9567   -1.2505 H   0  0  0  0  0  0  0  0  0  0  0  0
   -1.6250    0.1831   -1.7486 H   0  0  0  0  0  0  0  0  0  0  0  0
  2  1  1  0
  3  2  1  0
  4  1  2  0
  5  3  2  0
  5  4  1  0
  6  1  1  0
  7 18  1  0
  8  7  1  0
  9  3  1  0
  9  7  1  0
 10  8  1  0
 11 19  1  0
 12  2  1  0
 13 14  2  0
 13 15  1  0
 14 11  1  0
 15 16  2  0
 16 17  1  0
 17 11  2  0
 18 12  1  0
 19 21  1  0
 20  8  2  0
 21 10  1  0
 21 28  1  0
 22  6  1  0
 23  6  1  0
 24  6  1  0
 25 14  1  0
 26 15  1  0
 27 16  1  0
  9 29  1  0
  9 30  1  0
 10 31  1  0
 10 32  1  0
 12 33  1  0
 12 34  1  0
 13 35  1  0
 17 36  1  0
 18 37  1  0
 18 38  1  0
 19 39  1  0
 19 40  1  0
 21 41  1  1
 28 42  1  0
 28 43  1  0
M  END
>  <Mol_ID>  (1) 
2826

>  <Formula>  (1) 
C16H15F6N5O

>  <MolWeight>  (1) 
407.3136192

>  <Cat>  (1) 
S5079

>  <Name>  (1) 
Sitagliptin

>  <Synonyms>  (1) 
MK-0431

>  <Target>  (1) 
DPP

>  <Form>  (1) 
free base

>  <CAS>  (1) 
486460-32-6

>  <URL>  (1) 
http://selleckchem.com/products/sitagliptin.html

$$$$
