S5143 Citropten.cdx
     RDKit          3D

 25 26  0  0  0  0  0  0  0  0999 V2000
   -0.9643   -0.3853    0.3535 C   0  0  0  0  0  0  0  0  0  0  0  0
    0.1003   -1.2398    0.5724 C   0  0  0  0  0  0  0  0  0  0  0  0
   -0.7872    0.8564   -0.2653 C   0  0  0  0  0  0  0  0  0  0  0  0
   -2.2375   -0.7921    0.7681 C   0  0  0  0  0  0  0  0  0  0  0  0
    1.3586   -0.8451    0.1662 C   0  0  0  0  0  0  0  0  0  0  0  0
   -0.0767   -2.4204    1.1622 O   0  0  0  0  0  0  0  0  0  0  0  0
    0.4756    1.2495   -0.6716 C   0  0  0  0  0  0  0  0  0  0  0  0
   -1.9191    1.6221   -0.4304 O   0  0  0  0  0  0  0  0  0  0  0  0
   -2.3965   -2.0257    1.3798 C   0  0  0  0  0  0  0  0  0  0  0  0
    1.5092    0.3673   -0.4341 C   0  0  0  0  0  0  0  0  0  0  0  0
   -1.2704   -2.8132    1.5563 C   0  0  0  0  0  0  0  0  0  0  0  0
   -1.9932    2.8846   -1.0152 C   0  0  0  0  0  0  0  0  0  0  0  0
    2.7785    0.7540   -0.8385 O   0  0  0  0  0  0  0  0  0  0  0  0
   -1.3436   -3.9481    2.1063 O   0  0  0  0  0  0  0  0  0  0  0  0
    3.9079   -0.1053   -0.6286 C   0  0  0  0  0  0  0  0  0  0  0  0
   -3.1029   -0.1538    0.6168 H   0  0  0  0  0  0  0  0  0  0  0  0
    2.1785   -1.5326    0.3487 H   0  0  0  0  0  0  0  0  0  0  0  0
    0.6024    2.2118   -1.1492 H   0  0  0  0  0  0  0  0  0  0  0  0
   -3.3554   -2.3957    1.7222 H   0  0  0  0  0  0  0  0  0  0  0  0
   -2.9629    2.9875   -1.5847 H   0  0  0  0  0  0  0  0  0  0  0  0
   -1.8315    3.7246   -0.3169 H   0  0  0  0  0  0  0  0  0  0  0  0
   -1.2024    2.9455   -1.7921 H   0  0  0  0  0  0  0  0  0  0  0  0
    4.8272    0.4522   -0.8648 H   0  0  0  0  0  0  0  0  0  0  0  0
    3.8619   -0.3715    0.4606 H   0  0  0  0  0  0  0  0  0  0  0  0
    3.8435   -1.0268   -1.2217 H   0  0  0  0  0  0  0  0  0  0  0  0
  1  2  1  0
  1  3  2  0
  1  4  1  0
  2  5  2  0
  2  6  1  0
  3  7  1  0
  3  8  1  0
  4  9  2  0
  5 10  1  0
  6 11  1  0
  7 10  2  0
  8 12  1  0
  9 11  1  0
 10 13  1  0
 11 14  2  0
 13 15  1  0
  4 16  1  0
  5 17  1  0
  7 18  1  0
  9 19  1  0
 12 20  1  0
 12 21  1  0
 12 22  1  0
 15 23  1  0
 15 24  1  0
 15 25  1  0
M  END
>  <Mol_ID>  (1) 
2751

>  <Formula>  (1) 
C11H10O4

>  <MolWeight>  (1) 
206.1947

>  <Cat>  (1) 
S5143

>  <Name>  (1) 
Citropten

>  <Synonyms>  (1) 
5,7-Dimethoxycoumarin, Citroptene, Limettin, Limetin

>  <Target>  (1) 
Others

>  <Form>  (1) 
free base

>  <CAS>  (1) 
487-06-9

>  <URL>  (1) 
http://selleckchem.com/products/citropten.html

$$$$
