S5346 2-Phenylethylamine hydrochloride.cdx
     RDKit          3D

 20 20  0  0  0  0  0  0  0  0999 V2000
   -0.2071   -0.2651    0.4166 C   0  0  0  0  0  0  0  0  0  0  0  0
   -1.2686   -1.0591    0.0092 C   0  0  0  0  0  0  0  0  0  0  0  0
   -0.3876    1.0859    0.6505 C   0  0  0  0  0  0  0  0  0  0  0  0
    1.1370   -0.8454    0.6088 C   0  0  0  0  0  0  0  0  0  0  0  0
   -2.5173   -0.4550   -0.1562 C   0  0  0  0  0  0  0  0  0  0  0  0
   -1.6251    1.6940    0.4886 C   0  0  0  0  0  0  0  0  0  0  0  0
    1.9924   -0.8190   -0.6143 C   0  0  0  0  0  0  0  0  0  0  0  0
   -2.6655    0.9023    0.0866 C   0  0  0  0  0  0  0  0  0  0  0  0
    2.2264    0.5247   -1.1115 N   0  0  0  0  0  0  0  0  0  0  0  0
   -1.1455   -2.1254   -0.1799 H   0  0  0  0  0  0  0  0  0  0  0  0
    0.4624    1.6814    0.9685 H   0  0  0  0  0  0  0  0  0  0  0  0
    1.0027   -1.9097    0.8924 H   0  0  0  0  0  0  0  0  0  0  0  0
    1.6667   -0.3616    1.4579 H   0  0  0  0  0  0  0  0  0  0  0  0
   -3.3816   -1.0256   -0.4724 H   0  0  0  0  0  0  0  0  0  0  0  0
   -1.7290    2.7562    0.6813 H   0  0  0  0  0  0  0  0  0  0  0  0
    2.9983   -1.2075   -0.2829 H   0  0  0  0  0  0  0  0  0  0  0  0
    1.6458   -1.5075   -1.3877 H   0  0  0  0  0  0  0  0  0  0  0  0
   -3.6312    1.3706   -0.0411 H   0  0  0  0  0  0  0  0  0  0  0  0
    2.9512    1.0269   -0.5507 H   0  0  0  0  0  0  0  0  0  0  0  0
    2.4753    0.5391   -2.1148 H   0  0  0  0  0  0  0  0  0  0  0  0
  1  2  2  0
  1  3  1  0
  1  4  1  0
  2  5  1  0
  3  6  2  0
  4  7  1  0
  5  8  2  0
  6  8  1  0
  7  9  1  0
  2 10  1  0
  3 11  1  0
  4 12  1  0
  4 13  1  0
  5 14  1  0
  6 15  1  0
  7 16  1  0
  7 17  1  0
  8 18  1  0
  9 19  1  0
  9 20  1  0
M  END
>  <Mol_ID>  (1) 
2930

>  <Formula>  (1) 
C8H12ClN

>  <MolWeight>  (1) 
157.64058

>  <Cat>  (1) 
S5346

>  <Name>  (1) 
2-Phenylethylamine hydrochloride

>  <Synonyms>  (1) 
¦Â-Phenylethylamine hydrochloride, benzeneethanamine hydrochloride, ¦Â-aminoethylbenzene hydrochloride

>  <Target>  (1) 
Others

>  <Form>  (1) 
hydrochloride

>  <CAS>  (1) 
156-28-5

>  <URL>  (1) 
http://selleckchem.com/products/2-phenylethylamine-hydrochloride.html

$$$$
