SHP099
     RDKit          3D

 42 44  0  0  0  0  0  0  0  0999 V2000
   -1.6179    0.1906    0.4601 N   0  0  0  0  0  0  0  0  0  0  0  0
   -5.2613   -0.2666   -1.4193 N   0  0  0  0  0  0  0  0  0  0  0  0
    0.5283   -0.9216    0.2633 N   0  0  0  0  0  0  0  0  0  0  0  0
    1.8873    1.4071    0.2812 N   0  0  0  0  0  0  0  0  0  0  0  0
    2.5671   -2.1579    0.0697 N   0  0  0  0  0  0  0  0  0  0  0  0
   -4.2832   -0.1005   -0.3812 C   0  0  0  0  0  0  0  0  0  0  0  0
   -3.5551    1.1917   -0.5235 C   0  0  0  0  0  0  0  0  0  0  0  0
   -3.3312   -1.2789   -0.5133 C   0  0  0  0  0  0  0  0  0  0  0  0
   -2.4752    1.3393    0.5252 C   0  0  0  0  0  0  0  0  0  0  0  0
   -2.2459   -1.1177    0.4978 C   0  0  0  0  0  0  0  0  0  0  0  0
   -5.0026   -0.2366    0.9416 C   0  0  0  0  0  0  0  0  0  0  0  0
   -0.2027    0.2303    0.3656 C   0  0  0  0  0  0  0  0  0  0  0  0
    0.5365    1.3937    0.3706 C   0  0  0  0  0  0  0  0  0  0  0  0
    1.8682   -0.9245    0.1738 C   0  0  0  0  0  0  0  0  0  0  0  0
    2.5776    0.2576    0.1816 C   0  0  0  0  0  0  0  0  0  0  0  0
    4.0270    0.3242    0.0880 C   0  0  0  0  0  0  0  0  0  0  0  0
    4.7250    1.1707    0.9407 C   0  0  0  0  0  0  0  0  0  0  0  0
    4.6778   -0.4547   -0.8454 C   0  0  0  0  0  0  0  0  0  0  0  0
    6.1148    1.2344    0.8509 C   0  0  0  0  0  0  0  0  0  0  0  0
    6.0713   -0.3875   -0.9319 C   0  0  0  0  0  0  0  0  0  0  0  0
    6.7768    0.4547   -0.0849 C   0  0  0  0  0  0  0  0  0  0  0  0
   -5.8947    0.5551   -1.4874 H   0  0  0  0  0  0  0  0  0  0  0  0
   -4.8190   -0.4064   -2.3637 H   0  0  0  0  0  0  0  0  0  0  0  0
    3.4340   -2.3211    0.6261 H   0  0  0  0  0  0  0  0  0  0  0  0
    2.2350   -2.9380   -0.5660 H   0  0  0  0  0  0  0  0  0  0  0  0
   -3.0451    1.1684   -1.5074 H   0  0  0  0  0  0  0  0  0  0  0  0
   -4.2775    2.0272   -0.5249 H   0  0  0  0  0  0  0  0  0  0  0  0
   -3.9257   -2.1755   -0.2865 H   0  0  0  0  0  0  0  0  0  0  0  0
   -2.9178   -1.4022   -1.5186 H   0  0  0  0  0  0  0  0  0  0  0  0
   -1.9241    2.2683    0.3183 H   0  0  0  0  0  0  0  0  0  0  0  0
   -2.9165    1.4874    1.5408 H   0  0  0  0  0  0  0  0  0  0  0  0
   -2.6692   -1.2393    1.5151 H   0  0  0  0  0  0  0  0  0  0  0  0
   -1.5181   -1.9276    0.3584 H   0  0  0  0  0  0  0  0  0  0  0  0
   -5.8314    0.5061    1.0038 H   0  0  0  0  0  0  0  0  0  0  0  0
   -5.4134   -1.2843    0.9682 H   0  0  0  0  0  0  0  0  0  0  0  0
   -4.3625   -0.1195    1.8164 H   0  0  0  0  0  0  0  0  0  0  0  0
    0.0626    2.3580    0.4485 H   0  0  0  0  0  0  0  0  0  0  0  0
    4.1876    1.7806    1.6749 H   0  0  0  0  0  0  0  0  0  0  0  0
    4.1388   -1.1159   -1.5122 H   0  0  0  0  0  0  0  0  0  0  0  0
    6.6334    1.9024    1.5274 H   0  0  0  0  0  0  0  0  0  0  0  0
    6.5915   -0.9953   -1.6618 H   0  0  0  0  0  0  0  0  0  0  0  0
    7.8496    0.5242   -0.1319 H   0  0  0  0  0  0  0  0  0  0  0  0
  1  9  1  0
  1 10  1  0
  1 12  1  0
  2  6  1  0
  3 12  2  0
  3 14  1  0
  4 13  2  0
  4 15  1  0
  5 14  1  0
  6  7  1  0
  6  8  1  0
  6 11  1  0
  7  9  1  0
  8 10  1  0
 12 13  1  0
 14 15  2  0
 15 16  1  0
 16 17  2  0
 16 18  1  0
 17 19  1  0
 18 20  2  0
 19 21  2  0
 20 21  1  0
  2 22  1  0
  2 23  1  0
  5 24  1  0
  5 25  1  0
  7 26  1  0
  7 27  1  0
  8 28  1  0
  8 29  1  0
  9 30  1  0
  9 31  1  0
 10 32  1  0
 10 33  1  0
 11 34  1  0
 11 35  1  0
 11 36  1  0
 13 37  1  0
 17 38  1  0
 18 39  1  0
 19 40  1  0
 20 41  1  0
 21 42  1  0
M  END
>  <Mol_ID>  (1) 
5896

>  <Formula>  (1) 
C16H19Cl2N5

>  <MolWeight>  (1) 
352.26156

>  <Cat>  (1) 
S6388

>  <Name>  (1) 
SHP099

>  <Synonyms>  (1) 
N/A

>  <Target>  (1) 
phosphatase

>  <Form>  (1) 
Free Base

>  <CAS>  (1) 
1801747-42-1

>  <URL>  (1) 
http://www.selleckchem.com/products/shp099.html

$$$$
