VIOXX (rofecoxib).cdx
     RDKit          3D

 36 38  0  0  0  0  0  0  0  0999 V2000
    1.9825    1.0455   -0.8773 C   0  0  0  0  0  0  0  0  0  0  0  0
    2.7849   -0.0759   -0.8556 C   0  0  0  0  0  0  0  0  0  0  0  0
    2.4618   -1.1616   -0.0615 C   0  0  0  0  0  0  0  0  0  0  0  0
    1.3233   -1.1092    0.7108 C   0  0  0  0  0  0  0  0  0  0  0  0
    0.4867   -0.0037    0.7208 C   0  0  0  0  0  0  0  0  0  0  0  0
    0.8435    1.0449   -0.0761 C   0  0  0  0  0  0  0  0  0  0  0  0
    4.2320   -0.1166   -1.8441 S   0  0  0  0  0  0  0  0  0  0  0  0
    5.6189    0.4769   -0.8893 C   0  0  0  0  0  0  0  0  0  0  0  0
    4.5241   -1.4811   -2.3844 O   0  0  0  0  0  0  0  0  0  0  0  0
    4.0540    0.8767   -2.9696 O   0  0  0  0  0  0  0  0  0  0  0  0
   -0.6474   -0.0597    1.6225 C   0  0  0  0  0  0  0  0  0  0  0  0
   -1.9422   -0.0052    1.4205 C   0  0  0  0  0  0  0  0  0  0  0  0
   -2.5830   -0.1117    2.7607 C   0  0  0  0  0  0  0  0  0  0  0  0
   -1.6298   -0.2292    3.7440 O   0  0  0  0  0  0  0  0  0  0  0  0
   -0.3846   -0.2091    3.1163 C   0  0  0  0  0  0  0  0  0  0  0  0
   -3.8229   -0.1010    3.0100 O   0  0  0  0  0  0  0  0  0  0  0  0
   -2.7546    0.1036    0.2329 C   0  0  0  0  0  0  0  0  0  0  0  0
   -3.8540   -0.7760    0.1683 C   0  0  0  0  0  0  0  0  0  0  0  0
   -4.7269   -0.7801   -0.8926 C   0  0  0  0  0  0  0  0  0  0  0  0
   -4.5661    0.0879   -1.9589 C   0  0  0  0  0  0  0  0  0  0  0  0
   -3.4987    0.9472   -1.9019 C   0  0  0  0  0  0  0  0  0  0  0  0
   -2.6130    0.9459   -0.8167 C   0  0  0  0  0  0  0  0  0  0  0  0
    2.2056    1.9114   -1.4854 H   0  0  0  0  0  0  0  0  0  0  0  0
    3.1311   -2.0269   -0.0803 H   0  0  0  0  0  0  0  0  0  0  0  0
    1.1210   -1.9987    1.3162 H   0  0  0  0  0  0  0  0  0  0  0  0
    0.2574    1.9333   -0.0909 H   0  0  0  0  0  0  0  0  0  0  0  0
    6.1648   -0.4077   -0.4616 H   0  0  0  0  0  0  0  0  0  0  0  0
    5.2114    1.1163   -0.0921 H   0  0  0  0  0  0  0  0  0  0  0  0
    6.3253    1.0521   -1.5487 H   0  0  0  0  0  0  0  0  0  0  0  0
    0.1161   -1.1812    3.3147 H   0  0  0  0  0  0  0  0  0  0  0  0
    0.2316    0.6567    3.4816 H   0  0  0  0  0  0  0  0  0  0  0  0
   -4.0355   -1.4882    0.9839 H   0  0  0  0  0  0  0  0  0  0  0  0
   -5.5723   -1.4494   -0.9501 H   0  0  0  0  0  0  0  0  0  0  0  0
   -5.2607    0.0719   -2.7853 H   0  0  0  0  0  0  0  0  0  0  0  0
   -3.3562    1.6246   -2.7132 H   0  0  0  0  0  0  0  0  0  0  0  0
   -1.8280    1.6641   -0.8676 H   0  0  0  0  0  0  0  0  0  0  0  0
  1  2  2  0
  2  3  1  0
  2  7  1  0
  3  4  2  0
  4  5  1  0
  5  6  2  0
  5 11  1  0
  6  1  1  0
  7  8  1  0
  7  9  2  0
  7 10  2  0
 11 12  2  0
 12 13  1  0
 12 17  1  0
 13 14  1  0
 13 16  2  0
 14 15  1  0
 15 11  1  0
 17 18  2  0
 18 19  1  0
 19 20  2  0
 20 21  1  0
 21 22  2  0
 22 17  1  0
  1 23  1  0
  3 24  1  0
  4 25  1  0
  6 26  1  0
  8 27  1  0
  8 28  1  0
  8 29  1  0
 15 30  1  0
 15 31  1  0
 18 32  1  0
 19 33  1  0
 20 34  1  0
 21 35  1  0
 22 36  1  0
M  END
>  <Mol_ID>  (1) 
1014

>  <Formula>  (1) 
C17H14O4S

>  <MolWeight>  (1) 
314.35566

>  <Cat>  (1) 
S3043

>  <Name>  (1) 
Rofecoxib

>  <Synonyms>  (1) 
MK-0966

>  <Target>  (1) 
COX

>  <Form>  (1) 
free base

>  <CAS>  (1) 
162011-90-7

>  <URL>  (1) 
http://selleckchem.com/products/rofecoxib-vioxx.html

$$$$
