WAY-310445
     RDKit          3D

 42 44  0  0  0  0  0  0  0  0999 V2000
   -2.2591    0.5125   -0.0915 C   0  0  0  0  0  0  0  0  0  0  0  0
   -2.7219   -0.7720    0.1838 C   0  0  0  0  0  0  0  0  0  0  0  0
   -0.9256    0.4510   -0.0542 N   0  0  0  0  0  0  0  0  0  0  0  0
   -3.1673    1.4668   -0.3183 N   0  0  0  0  0  0  0  0  0  0  0  0
   -1.6495   -1.5574    0.3762 N   0  0  0  0  0  0  0  0  0  0  0  0
   -4.0709   -1.0639    0.2241 C   0  0  0  0  0  0  0  0  0  0  0  0
   -0.5380   -0.8099    0.2311 C   0  0  0  0  0  0  0  0  0  0  0  0
   -4.4810    1.1857   -0.2797 C   0  0  0  0  0  0  0  0  0  0  0  0
   -2.7208    2.8230   -0.6097 C   0  0  0  0  0  0  0  0  0  0  0  0
   -1.6420   -2.9619    0.6864 C   0  0  0  0  0  0  0  0  0  0  0  0
   -4.9451   -0.0513   -0.0149 N   0  0  0  0  0  0  0  0  0  0  0  0
   -4.5244   -2.1991    0.4666 O   0  0  0  0  0  0  0  0  0  0  0  0
    0.8079   -1.2500    0.3522 N   0  0  0  0  0  0  0  0  0  0  0  0
   -5.3309    2.0828   -0.4929 O   0  0  0  0  0  0  0  0  0  0  0  0
   -6.3561   -0.3440    0.0245 C   0  0  0  0  0  0  0  0  0  0  0  0
    1.8823   -0.2929    0.1601 C   0  0  0  0  0  0  0  0  0  0  0  0
    3.2185   -0.9611    0.3314 C   0  0  0  0  0  0  0  0  0  0  0  0
    4.3545   -0.0291    0.1459 C   0  0  0  0  0  0  0  0  0  0  0  0
    4.8455    0.0844   -1.1597 C   0  0  0  0  0  0  0  0  0  0  0  0
    4.9204    0.6992    1.1722 C   0  0  0  0  0  0  0  0  0  0  0  0
    5.9034    0.9434   -1.3705 C   0  0  0  0  0  0  0  0  0  0  0  0
    5.9777    1.5515    0.9356 C   0  0  0  0  0  0  0  0  0  0  0  0
    6.4818    1.6808   -0.3515 C   0  0  0  0  0  0  0  0  0  0  0  0
   -3.3441    3.4821    0.0360 H   0  0  0  0  0  0  0  0  0  0  0  0
   -1.6476    2.9186   -0.3911 H   0  0  0  0  0  0  0  0  0  0  0  0
   -3.0123    3.0358   -1.6505 H   0  0  0  0  0  0  0  0  0  0  0  0
   -1.6942   -3.0939    1.7729 H   0  0  0  0  0  0  0  0  0  0  0  0
   -0.7132   -3.4707    0.3035 H   0  0  0  0  0  0  0  0  0  0  0  0
   -2.4757   -3.5265    0.2266 H   0  0  0  0  0  0  0  0  0  0  0  0
    1.0128   -2.2486    0.5763 H   0  0  0  0  0  0  0  0  0  0  0  0
   -6.5035   -1.3065   -0.5430 H   0  0  0  0  0  0  0  0  0  0  0  0
   -6.7566   -0.5092    1.0351 H   0  0  0  0  0  0  0  0  0  0  0  0
   -6.9492    0.4501   -0.4857 H   0  0  0  0  0  0  0  0  0  0  0  0
    1.8232    0.2389   -0.8177 H   0  0  0  0  0  0  0  0  0  0  0  0
    1.7753    0.4789    0.9713 H   0  0  0  0  0  0  0  0  0  0  0  0
    3.2470   -1.4359    1.3331 H   0  0  0  0  0  0  0  0  0  0  0  0
    3.2687   -1.7882   -0.4068 H   0  0  0  0  0  0  0  0  0  0  0  0
    4.4066   -0.4845   -1.9731 H   0  0  0  0  0  0  0  0  0  0  0  0
    4.5085    0.5814    2.1725 H   0  0  0  0  0  0  0  0  0  0  0  0
    6.2942    1.0401   -2.3830 H   0  0  0  0  0  0  0  0  0  0  0  0
    6.3926    2.1012    1.7546 H   0  0  0  0  0  0  0  0  0  0  0  0
    7.3082    2.3485   -0.5299 H   0  0  0  0  0  0  0  0  0  0  0  0
  1  2  2  0
  1  3  1  0
  1  4  1  0
  2  5  1  0
  2  6  1  0
  3  7  2  0
  4  8  1  0
  4  9  1  0
  5 10  1  0
  5  7  1  0
  6 11  1  0
  6 12  2  0
  7 13  1  0
  8 14  2  0
  8 11  1  0
 11 15  1  0
 13 16  1  0
 16 17  1  0
 17 18  1  0
 18 19  2  0
 18 20  1  0
 19 21  1  0
 20 22  2  0
 21 23  2  0
 22 23  1  0
  9 24  1  0
  9 25  1  0
  9 26  1  0
 10 27  1  0
 10 28  1  0
 10 29  1  0
 13 30  1  0
 15 31  1  0
 15 32  1  0
 15 33  1  0
 16 34  1  0
 16 35  1  0
 17 36  1  0
 17 37  1  0
 19 38  1  0
 20 39  1  0
 21 40  1  0
 22 41  1  0
 23 42  1  0
M  END
>  <Mol_ID>  (1) 
8311

>  <Formula>  (1) 
C16H19N5O2

>  <MolWeight>  (1) 
313.35436

>  <Cat>  (1) 
P2183

>  <Name>  (1) 
WAY-310445

>  <Synonyms>  (1) 
N/A

>  <Target>  (1) 
MAO

>  <Form>  (1) 
free base

>  <CAS>  (1) 
7499-93-6

>  <URL>  (1) 
N/A

$$$$
