(-)-Bornyl acetate
 OpenBabel08302521373D

 34 35  0  0  1  0  0  0  0  0999 V2000
    1.1988   -1.9847    0.0434 C   0  0  0  0  0  0  0  0  0  0  0  0
   -1.8931   -1.9279    1.0361 O   0  0  0  0  0  0  0  0  0  0  0  0
   -2.0008   -2.9640    1.9029 C   0  0  0  0  0  0  0  0  0  0  0  0
   -3.1780   -3.8226    1.5397 C   0  0  0  0  0  0  0  0  0  0  0  0
   -1.2552   -3.1909    2.8466 O   0  0  0  0  0  0  0  0  0  0  0  0
    1.4669    0.9990   -1.2043 C   0  0  0  0  0  0  0  0  0  0  0  0
    1.4437    0.9864    1.2592 C   0  0  0  0  0  0  0  0  0  0  0  0
    0.1285   -0.9095    0.0108 C   0  0  1  0  0  0  0  0  0  0  0  0
   -0.8420   -0.9664    1.2391 C   0  0  1  0  0  0  0  0  0  0  0  0
    0.6297    0.5684    0.0194 C   0  0  0  0  0  0  0  0  0  0  0  0
   -0.7381   -0.9555   -1.2771 C   0  0  0  0  0  0  0  0  0  0  0  0
   -1.4720    0.4425    1.2333 C   0  0  0  0  0  0  0  0  0  0  0  0
   -0.8256    1.1012   -0.0059 C   0  0  2  0  0  0  0  0  0  0  0  0
   -1.4457    0.4119   -1.2461 C   0  0  0  0  0  0  0  0  0  0  0  0
    0.7541   -2.9848    0.0386 H   0  0  0  0  0  0  0  0  0  0  0  0
    1.8637   -1.9113   -0.8236 H   0  0  0  0  0  0  0  0  0  0  0  0
    1.8181   -1.9009    0.9430 H   0  0  0  0  0  0  0  0  0  0  0  0
   -2.8253   -4.7971    1.1942 H   0  0  0  0  0  0  0  0  0  0  0  0
   -3.8264   -3.9346    2.4119 H   0  0  0  0  0  0  0  0  0  0  0  0
   -3.7652   -3.3590    0.7415 H   0  0  0  0  0  0  0  0  0  0  0  0
    2.4319    0.4805   -1.2153 H   0  0  0  0  0  0  0  0  0  0  0  0
    0.9944    0.8097   -2.1703 H   0  0  0  0  0  0  0  0  0  0  0  0
    1.6679    2.0762   -1.1682 H   0  0  0  0  0  0  0  0  0  0  0  0
    0.9698    0.7558    2.2146 H   0  0  0  0  0  0  0  0  0  0  0  0
    2.4213    0.4915    1.2634 H   0  0  0  0  0  0  0  0  0  0  0  0
    1.6237    2.0688    1.2479 H   0  0  0  0  0  0  0  0  0  0  0  0
   -0.3051   -1.1373    2.1794 H   0  0  0  0  0  0  0  0  0  0  0  0
   -0.1242   -1.0560   -2.1791 H   0  0  0  0  0  0  0  0  0  0  0  0
   -1.4513   -1.7852   -1.2994 H   0  0  0  0  0  0  0  0  0  0  0  0
   -1.2014    0.9882    2.1435 H   0  0  0  0  0  0  0  0  0  0  0  0
   -2.5656    0.4245    1.1764 H   0  0  0  0  0  0  0  0  0  0  0  0
   -0.9318    2.1884   -0.0182 H   0  0  0  0  0  0  0  0  0  0  0  0
   -2.5320    0.3003   -1.1600 H   0  0  0  0  0  0  0  0  0  0  0  0
   -1.2440    0.9739   -2.1632 H   0  0  0  0  0  0  0  0  0  0  0  0
  1 15  1  0  0  0  0
  1 16  1  0  0  0  0
  1 17  1  0  0  0  0
  2  3  1  0  0  0  0
  3  4  1  0  0  0  0
  3  5  2  0  0  0  0
  4 18  1  0  0  0  0
  4 19  1  0  0  0  0
  4 20  1  0  0  0  0
  6 10  1  0  0  0  0
  6 21  1  0  0  0  0
  6 22  1  0  0  0  0
  6 23  1  0  0  0  0
  7 10  1  0  0  0  0
  7 24  1  0  0  0  0
  7 25  1  0  0  0  0
  7 26  1  0  0  0  0
  8  1  1  1  0  0  0
  8  9  1  0  0  0  0
  8 10  1  0  0  0  0
  8 11  1  0  0  0  0
  9 12  1  0  0  0  0
  9 27  1  1  0  0  0
  9  2  1  0  0  0  0
 10 13  1  0  0  0  0
 11 14  1  0  0  0  0
 11 28  1  0  0  0  0
 11 29  1  0  0  0  0
 12 30  1  0  0  0  0
 12 31  1  0  0  0  0
 13 12  1  0  0  0  0
 13 14  1  0  0  0  0
 13 32  1  6  0  0  0
 14 33  1  0  0  0  0
 14 34  1  0  0  0  0
M  END
>  <Mol_ID>
7394

>  <Formula>
C12H20O2

>  <MolWeight>
196.286

>  <Cat>
E4483

>  <Name>
(-)-Bornyl acetate

>  <Synonyms>
(-)-Bornyl acetate

>  <Target>
Antifungal; JNK; NF-¦ÊB; p38 MAPK

>  <Form>
free base

>  <CAS>
5655-61-8

>  <URL>
https://www.selleckchem.com/products/bornyl-acetate.html

$$$$
