(-)-Epipodophyllotoxin
 OpenBabel08302521533D

 52 56  0  0  1  0  0  0  0  0999 V2000
    1.1534    0.2248   -0.1504 O   0  0  0  0  0  0  0  0  0  0  0  0
    5.9437   -1.2159   -1.3703 O   0  0  0  0  0  0  0  0  0  0  0  0
    3.7203   -2.9290    5.2814 O   0  0  0  0  0  0  0  0  0  0  0  0
    5.0558   -3.2617    4.9217 C   0  0  0  0  0  0  0  0  0  0  0  0
   -0.7540   -1.6520    3.7252 O   0  0  0  0  0  0  0  0  0  0  0  0
   -1.3434   -1.5293    5.0104 C   0  0  0  0  0  0  0  0  0  0  0  0
    0.9886   -2.3069    5.9208 O   0  0  0  0  0  0  0  0  0  0  0  0
    1.7987   -2.6622    7.0290 C   0  0  0  0  0  0  0  0  0  0  0  0
    2.7164   -2.3961    0.4277 C   0  0  2  0  0  0  0  0  0  0  0  0
    3.8412   -3.4329    0.1905 C   0  0  0  0  0  0  0  0  0  0  0  0
    3.1962   -1.0736   -0.1692 C   0  0  2  0  0  0  0  0  0  0  0  0
    5.2123   -3.0294    0.0270 C   0  0  0  0  0  0  0  0  0  0  0  0
    3.5086   -4.8017    0.2215 C   0  0  0  0  0  0  0  0  0  0  0  0
    4.5063   -0.6558    0.4698 C   0  0  1  0  0  0  0  0  0  0  0  0
    2.3606    0.1534   -0.0064 C   0  0  0  0  0  0  0  0  0  0  0  0
    5.6229   -1.5592   -0.0272 C   0  0  2  0  0  0  0  0  0  0  0  0
    6.2114   -4.0121   -0.1025 C   0  0  0  0  0  0  0  0  0  0  0  0
    4.5231   -5.7215    0.0736 C   0  0  0  0  0  0  0  0  0  0  0  0
    4.5512    0.8121    0.1418 C   0  0  0  0  0  0  0  0  0  0  0  0
    3.1805    1.2322    0.2134 O   0  0  0  0  0  0  0  0  0  0  0  0
    5.8330   -5.3378   -0.0831 C   0  0  0  0  0  0  0  0  0  0  0  0
    4.3762   -7.0737    0.0671 O   0  0  0  0  0  0  0  0  0  0  0  0
    6.6720   -6.4012   -0.2136 O   0  0  0  0  0  0  0  0  0  0  0  0
    5.7220   -7.4877   -0.2452 C   0  0  0  0  0  0  0  0  0  0  0  0
    2.2953   -2.3340    1.9015 C   0  0  0  0  0  0  0  0  0  0  0  0
    3.1951   -2.6164    2.9376 C   0  0  0  0  0  0  0  0  0  0  0  0
    0.9850   -2.0122    2.2647 C   0  0  0  0  0  0  0  0  0  0  0  0
    2.8187   -2.6254    4.2929 C   0  0  0  0  0  0  0  0  0  0  0  0
    0.5737   -1.9949    3.6143 C   0  0  0  0  0  0  0  0  0  0  0  0
    1.4901   -2.3177    4.6444 C   0  0  0  0  0  0  0  0  0  0  0  0
    6.5731   -1.8768   -1.7076 H   0  0  0  0  0  0  0  0  0  0  0  0
    5.0897   -4.1044    4.2230 H   0  0  0  0  0  0  0  0  0  0  0  0
    5.5750   -2.3866    4.5172 H   0  0  0  0  0  0  0  0  0  0  0  0
    5.5795   -3.5722    5.8303 H   0  0  0  0  0  0  0  0  0  0  0  0
   -1.4076   -2.5024    5.5074 H   0  0  0  0  0  0  0  0  0  0  0  0
   -0.8295   -0.7825    5.6238 H   0  0  0  0  0  0  0  0  0  0  0  0
   -2.3687   -1.1719    4.8713 H   0  0  0  0  0  0  0  0  0  0  0  0
    2.1470   -3.6973    6.9551 H   0  0  0  0  0  0  0  0  0  0  0  0
    2.6201   -1.9523    7.1653 H   0  0  0  0  0  0  0  0  0  0  0  0
    1.1740   -2.5993    7.9256 H   0  0  0  0  0  0  0  0  0  0  0  0
    1.8440   -2.7308   -0.1524 H   0  0  0  0  0  0  0  0  0  0  0  0
    3.3229   -1.1935   -1.2571 H   0  0  0  0  0  0  0  0  0  0  0  0
    2.4858   -5.1348    0.3713 H   0  0  0  0  0  0  0  0  0  0  0  0
    4.4430   -0.7332    1.5612 H   0  0  0  0  0  0  0  0  0  0  0  0
    6.5183   -1.3975    0.5841 H   0  0  0  0  0  0  0  0  0  0  0  0
    7.2582   -3.7518   -0.2202 H   0  0  0  0  0  0  0  0  0  0  0  0
    4.9411    1.0484   -0.8532 H   0  0  0  0  0  0  0  0  0  0  0  0
    5.1313    1.3677    0.8879 H   0  0  0  0  0  0  0  0  0  0  0  0
    6.0354   -8.2553    0.4709 H   0  0  0  0  0  0  0  0  0  0  0  0
    5.7268   -7.9233   -1.2520 H   0  0  0  0  0  0  0  0  0  0  0  0
    4.2199   -2.8440    2.6727 H   0  0  0  0  0  0  0  0  0  0  0  0
    0.2486   -1.7685    1.4998 H   0  0  0  0  0  0  0  0  0  0  0  0
  1 15  2  0  0  0  0
  2 31  1  0  0  0  0
  3  4  1  0  0  0  0
  3 28  1  0  0  0  0
  4 32  1  0  0  0  0
  4 33  1  0  0  0  0
  4 34  1  0  0  0  0
  5  6  1  0  0  0  0
  5 29  1  0  0  0  0
  6 35  1  0  0  0  0
  6 36  1  0  0  0  0
  6 37  1  0  0  0  0
  7  8  1  0  0  0  0
  7 30  1  0  0  0  0
  8 38  1  0  0  0  0
  8 39  1  0  0  0  0
  8 40  1  0  0  0  0
  9 10  1  0  0  0  0
  9 11  1  0  0  0  0
  9 25  1  0  0  0  0
  9 41  1  6  0  0  0
 10 12  1  0  0  0  0
 10 13  2  0  0  0  0
 11 14  1  0  0  0  0
 11 15  1  0  0  0  0
 11 42  1  6  0  0  0
 12 16  1  0  0  0  0
 12 17  2  0  0  0  0
 13 18  1  0  0  0  0
 13 43  1  0  0  0  0
 14 16  1  0  0  0  0
 14 19  1  0  0  0  0
 14 44  1  1  0  0  0
 15 20  1  0  0  0  0
 16 45  1  1  0  0  0
 16  2  1  0  0  0  0
 17 21  1  0  0  0  0
 17 46  1  0  0  0  0
 18 21  2  0  0  0  0
 18 22  1  0  0  0  0
 19 20  1  0  0  0  0
 19 47  1  0  0  0  0
 19 48  1  0  0  0  0
 21 23  1  0  0  0  0
 22 24  1  0  0  0  0
 23 24  1  0  0  0  0
 24 49  1  0  0  0  0
 24 50  1  0  0  0  0
 25 26  2  0  0  0  0
 25 27  1  0  0  0  0
 26 28  1  0  0  0  0
 26 51  1  0  0  0  0
 27 29  2  0  0  0  0
 27 52  1  0  0  0  0
 28 30  2  0  0  0  0
 29 30  1  0  0  0  0
M  END
>  <Mol_ID>
9981

>  <Formula>
C22H22O8

>  <MolWeight>
414.40528

>  <Cat>
E5346

>  <Name>
(-)-Epipodophyllotoxin

>  <Synonyms>
NA

>  <Target>
Apoptosis, mitotic spindle assembly

>  <Form>
Free Base

>  <CAS>
4375-07-9

>  <URL>
https://www.selleckchem.com/products/epipodophyllotoxin.html

$$$$
