(-)-Menthone
 OpenBabel08302521353D

 29 29  0  0  1  0  0  0  0  0999 V2000
    0.9996   -0.0979    0.0865 C   0  0  0  0  0  0  0  0  0  0  0  0
    0.4427   -1.2036    0.9971 C   0  0  0  0  0  0  0  0  0  0  0  0
    0.4820    1.2426    0.6281 C   0  0  0  0  0  0  0  0  0  0  0  0
    2.3627   -2.3672   -0.9950 O   0  0  0  0  0  0  0  0  0  0  0  0
    6.5601   -0.4652   -1.8925 C   0  0  0  0  0  0  0  0  0  0  0  0
    2.5514   -0.1360   -0.0165 C   0  0  1  0  0  0  0  0  0  0  0  0
    3.0807   -1.4368   -0.6326 C   0  0  0  0  0  0  0  0  0  0  0  0
    3.1098    1.0231   -0.8719 C   0  0  0  0  0  0  0  0  0  0  0  0
    4.5825   -1.5326   -0.7707 C   0  0  0  0  0  0  0  0  0  0  0  0
    4.6268    0.9492   -1.0835 C   0  0  0  0  0  0  0  0  0  0  0  0
    5.0512   -0.3987   -1.6780 C   0  0  1  0  0  0  0  0  0  0  0  0
    0.5767   -0.2431   -0.9160 H   0  0  0  0  0  0  0  0  0  0  0  0
    0.8385   -1.1170    2.0130 H   0  0  0  0  0  0  0  0  0  0  0  0
   -0.6505   -1.1384    1.0526 H   0  0  0  0  0  0  0  0  0  0  0  0
    0.6719   -2.2071    0.6309 H   0  0  0  0  0  0  0  0  0  0  0  0
    0.7350    2.0776   -0.0306 H   0  0  0  0  0  0  0  0  0  0  0  0
   -0.6105    1.2290    0.7135 H   0  0  0  0  0  0  0  0  0  0  0  0
    0.8922    1.4499    1.6228 H   0  0  0  0  0  0  0  0  0  0  0  0
    6.8441   -1.4176   -2.3504 H   0  0  0  0  0  0  0  0  0  0  0  0
    6.8931    0.3384   -2.5585 H   0  0  0  0  0  0  0  0  0  0  0  0
    7.1027   -0.3687   -0.9453 H   0  0  0  0  0  0  0  0  0  0  0  0
    2.9727   -0.0678    0.9949 H   0  0  0  0  0  0  0  0  0  0  0  0
    2.8907    1.9859   -0.4015 H   0  0  0  0  0  0  0  0  0  0  0  0
    2.6174    1.0241   -1.8533 H   0  0  0  0  0  0  0  0  0  0  0  0
    4.8389   -2.5073   -1.2008 H   0  0  0  0  0  0  0  0  0  0  0  0
    5.0332   -1.4765    0.2251 H   0  0  0  0  0  0  0  0  0  0  0  0
    5.1361    1.1132   -0.1250 H   0  0  0  0  0  0  0  0  0  0  0  0
    4.9354    1.7620   -1.7506 H   0  0  0  0  0  0  0  0  0  0  0  0
    4.5664   -0.5087   -2.6599 H   0  0  0  0  0  0  0  0  0  0  0  0
  1  2  1  0  0  0  0
  1  3  1  0  0  0  0
  1 12  1  0  0  0  0
  2 13  1  0  0  0  0
  2 14  1  0  0  0  0
  2 15  1  0  0  0  0
  3 16  1  0  0  0  0
  3 17  1  0  0  0  0
  3 18  1  0  0  0  0
  4  7  2  0  0  0  0
  5 19  1  0  0  0  0
  5 20  1  0  0  0  0
  5 21  1  0  0  0  0
  6  1  1  0  0  0  0
  6  7  1  0  0  0  0
  6  8  1  0  0  0  0
  6 22  1  1  0  0  0
  7  9  1  0  0  0  0
  8 10  1  0  0  0  0
  8 23  1  0  0  0  0
  8 24  1  0  0  0  0
  9 11  1  0  0  0  0
  9 25  1  0  0  0  0
  9 26  1  0  0  0  0
 10 11  1  0  0  0  0
 10 27  1  0  0  0  0
 10 28  1  0  0  0  0
 11  5  1  0  0  0  0
 11 29  1  6  0  0  0
M  END
>  <Mol_ID>
6998

>  <Formula>
C10H18O

>  <MolWeight>
154.24932

>  <Cat>
E4118

>  <Name>
(-)-Menthone

>  <Synonyms>
(-)-Menthone

>  <Target>
Others

>  <Form>
free base

>  <CAS>
14073-97-3

>  <URL>
https://www.selleckchem.com/products/-menthone.html

$$$$
