(-)-Huperzine A.cdx
 OpenBabel08302521403D

 36 38  0  0  0  0  0  0  0  0999 V2000
   -0.0026   -0.6915    0.1140 C   0  0  0  0  0  0  0  0  0  0  0  0
   -1.4168   -0.8873   -0.6601 C   0  0  0  0  0  0  0  0  0  0  0  0
   -2.8838    0.1345   -0.3289 C   0  0  2  0  0  0  0  0  0  0  0  0
    0.0727    0.2403    1.0964 C   0  0  0  0  0  0  0  0  0  0  0  0
   -1.2146    0.9314    1.2411 C   0  0  1  0  0  0  0  0  0  0  0  0
    1.2374   -1.3207   -0.4280 C   0  0  0  0  0  0  0  0  0  0  0  0
   -1.8139    2.0894    1.9997 C   0  0  0  0  0  0  0  0  0  0  0  0
   -3.3115    2.0249    1.6115 C   0  0  0  0  0  0  0  0  0  0  0  0
   -3.7845    1.2113    0.6033 C   0  0  0  0  0  0  0  0  0  0  0  0
   -1.7349    1.1166   -0.1912 C   0  0  0  0  0  0  0  0  0  0  0  0
   -1.2226    1.7919   -1.2540 C   0  0  0  0  0  0  0  0  0  0  0  0
    0.1770    2.3131   -1.3634 C   0  0  0  0  0  0  0  0  0  0  0  0
   -3.4192   -1.0171    0.4875 N   0  0  0  0  0  0  0  0  0  0  0  0
   -4.1674    2.8267    2.3404 N   0  0  0  0  0  0  0  0  0  0  0  0
   -5.5221    2.8804    2.1642 C   0  0  0  0  0  0  0  0  0  0  0  0
   -6.0490    2.0805    1.0246 C   0  0  0  0  0  0  0  0  0  0  0  0
   -5.2175    1.3267    0.2861 C   0  0  0  0  0  0  0  0  0  0  0  0
   -6.2776    3.5537    2.8562 O   0  0  0  0  0  0  0  0  0  0  0  0
   -1.6361   -1.9637   -0.6176 H   0  0  0  0  0  0  0  0  0  0  0  0
   -1.2174   -0.7456   -1.7397 H   0  0  0  0  0  0  0  0  0  0  0  0
    0.9563    0.4915    1.6635 H   0  0  0  0  0  0  0  0  0  0  0  0
   -1.7301    0.1115    1.7789 H   0  0  0  0  0  0  0  0  0  0  0  0
    1.1123   -1.6039   -1.4762 H   0  0  0  0  0  0  0  0  0  0  0  0
    2.0624   -0.5952   -0.3988 H   0  0  0  0  0  0  0  0  0  0  0  0
    1.5292   -2.1956    0.1557 H   0  0  0  0  0  0  0  0  0  0  0  0
   -1.6882    1.9609    3.0811 H   0  0  0  0  0  0  0  0  0  0  0  0
   -1.3827    3.0512    1.7037 H   0  0  0  0  0  0  0  0  0  0  0  0
   -1.7589    1.7474   -2.2010 H   0  0  0  0  0  0  0  0  0  0  0  0
    0.7696    1.5710   -1.9207 H   0  0  0  0  0  0  0  0  0  0  0  0
    0.2084    3.2423   -1.9334 H   0  0  0  0  0  0  0  0  0  0  0  0
    0.6638    2.4707   -0.3996 H   0  0  0  0  0  0  0  0  0  0  0  0
   -4.4304   -0.9310    0.5867 H   0  0  0  0  0  0  0  0  0  0  0  0
   -3.3453   -1.8925   -0.0251 H   0  0  0  0  0  0  0  0  0  0  0  0
   -3.8090    3.3762    3.1063 H   0  0  0  0  0  0  0  0  0  0  0  0
   -7.1125    2.1579    0.8363 H   0  0  0  0  0  0  0  0  0  0  0  0
   -5.6047    0.7729   -0.5621 H   0  0  0  0  0  0  0  0  0  0  0  0
  1  2  1  0  0  0  0
  1  4  2  0  0  0  0
  1  6  1  0  0  0  0
  2  3  1  0  0  0  0
  2 19  1  0  0  0  0
  2 20  1  0  0  0  0
  3  9  1  0  0  0  0
  3 10  1  0  0  0  0
  3 13  1  1  0  0  0
  4 21  1  0  0  0  0
  5  4  1  0  0  0  0
  5  7  1  0  0  0  0
  5 22  1  1  0  0  0
  6 23  1  0  0  0  0
  6 24  1  0  0  0  0
  6 25  1  0  0  0  0
  7  8  1  0  0  0  0
  7 26  1  0  0  0  0
  7 27  1  0  0  0  0
  8  9  2  0  0  0  0
  8 14  1  0  0  0  0
 10 11  2  0  0  0  0
 10  5  1  0  0  0  0
 11 12  1  0  0  0  0
 11 28  1  0  0  0  0
 12 29  1  0  0  0  0
 12 30  1  0  0  0  0
 12 31  1  0  0  0  0
 13 32  1  0  0  0  0
 13 33  1  0  0  0  0
 14 15  1  0  0  0  0
 14 34  1  0  0  0  0
 15 16  1  0  0  0  0
 15 18  2  0  0  0  0
 16 17  2  0  0  0  0
 16 35  1  0  0  0  0
 17  9  1  0  0  0  0
 17 36  1  0  0  0  0
M  END
>  <Mol_ID>
8233

>  <Formula>
C15H18N2O

>  <MolWeight>
242.31622

>  <Cat>
S2251

>  <Name>
(-)-Huperzine A (HupA)

>  <Synonyms>
N/A

>  <Target>
AChR,GluR

>  <Form>
Free Base

>  <CAS>
102518-79-6

>  <URL>
http://selleckchem.com/products/(-)-Huperzine-A.html

$$$$
