(-)-(E)-Guggulsterone
 OpenBabel08302521593D

 51 54  0  0  1  0  0  0  0  0999 V2000
    2.7596   -1.7344    1.1560 C   0  0  0  0  0  0  0  0  0  0  0  0
    4.5937    0.6110   -0.1290 C   0  0  0  0  0  0  0  0  0  0  0  0
    4.9593    0.9153    1.2937 C   0  0  0  0  0  0  0  0  0  0  0  0
    3.9895   -0.2188   -2.8876 O   0  0  0  0  0  0  0  0  0  0  0  0
   -2.7536    0.7353    1.1349 C   0  0  0  0  0  0  0  0  0  0  0  0
   -6.0958   -0.7737    0.4266 O   0  0  0  0  0  0  0  0  0  0  0  0
    1.3742   -0.9973   -0.8947 C   0  0  1  0  0  0  0  0  0  0  0  0
    0.0737   -1.5659   -0.2985 C   0  0  1  0  0  0  0  0  0  0  0  0
    2.3037   -0.5488    0.2686 C   0  0  2  0  0  0  0  0  0  0  0  0
    2.2643   -1.6601   -1.9327 C   0  0  0  0  0  0  0  0  0  0  0  0
   -0.7029   -0.2740    0.0979 C   0  0  1  0  0  0  0  0  0  0  0  0
   -0.6658   -2.6437   -1.0425 C   0  0  0  0  0  0  0  0  0  0  0  0
    3.4928   -0.0449   -0.5218 C   0  0  0  0  0  0  0  0  0  0  0  0
    1.5359    0.5272    1.0886 C   0  0  0  0  0  0  0  0  0  0  0  0
    3.3438   -0.5930   -1.9221 C   0  0  0  0  0  0  0  0  0  0  0  0
   -2.2527   -0.3277    0.1045 C   0  0  1  0  0  0  0  0  0  0  0  0
    0.0512    0.1912    1.3919 C   0  0  0  0  0  0  0  0  0  0  0  0
   -2.1009   -2.8582   -0.5493 C   0  0  0  0  0  0  0  0  0  0  0  0
   -2.7658   -1.7491    0.2551 C   0  0  0  0  0  0  0  0  0  0  0  0
   -2.8987    0.0832   -1.2533 C   0  0  0  0  0  0  0  0  0  0  0  0
   -4.0633   -1.9586    0.5454 C   0  0  0  0  0  0  0  0  0  0  0  0
   -4.4354   -0.1137   -1.2220 C   0  0  0  0  0  0  0  0  0  0  0  0
   -4.9596   -0.8998   -0.0103 C   0  0  0  0  0  0  0  0  0  0  0  0
    2.3648   -1.6492    2.1736 H   0  0  0  0  0  0  0  0  0  0  0  0
    3.8506   -1.8000    1.2425 H   0  0  0  0  0  0  0  0  0  0  0  0
    2.4307   -2.7024    0.7634 H   0  0  0  0  0  0  0  0  0  0  0  0
    5.3464    0.8685   -0.8732 H   0  0  0  0  0  0  0  0  0  0  0  0
    4.1065    0.9355    1.9657 H   0  0  0  0  0  0  0  0  0  0  0  0
    5.4587    1.8854    1.3648 H   0  0  0  0  0  0  0  0  0  0  0  0
    5.6481    0.1453    1.6501 H   0  0  0  0  0  0  0  0  0  0  0  0
   -2.2242    1.6867    0.9680 H   0  0  0  0  0  0  0  0  0  0  0  0
   -2.5986    0.4146    2.1613 H   0  0  0  0  0  0  0  0  0  0  0  0
   -3.8104    1.0110    1.0323 H   0  0  0  0  0  0  0  0  0  0  0  0
    1.0700   -0.0932   -1.4485 H   0  0  0  0  0  0  0  0  0  0  0  0
    0.3161   -2.0896    0.6373 H   0  0  0  0  0  0  0  0  0  0  0  0
    2.6823   -2.6241   -1.6400 H   0  0  0  0  0  0  0  0  0  0  0  0
    1.7811   -1.7167   -2.9129 H   0  0  0  0  0  0  0  0  0  0  0  0
   -0.5064    0.5316   -0.6250 H   0  0  0  0  0  0  0  0  0  0  0  0
   -0.1306   -3.5966   -0.8970 H   0  0  0  0  0  0  0  0  0  0  0  0
   -0.6555   -2.4703   -2.1225 H   0  0  0  0  0  0  0  0  0  0  0  0
    2.0247    0.7160    2.0519 H   0  0  0  0  0  0  0  0  0  0  0  0
    1.5462    1.4748    0.5319 H   0  0  0  0  0  0  0  0  0  0  0  0
   -0.0097   -0.5849    2.1673 H   0  0  0  0  0  0  0  0  0  0  0  0
   -0.3852    1.0932    1.8267 H   0  0  0  0  0  0  0  0  0  0  0  0
   -2.7032   -2.9797   -1.4651 H   0  0  0  0  0  0  0  0  0  0  0  0
   -2.1875   -3.8135   -0.0182 H   0  0  0  0  0  0  0  0  0  0  0  0
   -2.6673    1.1251   -1.5056 H   0  0  0  0  0  0  0  0  0  0  0  0
   -2.4807   -0.5124   -2.0821 H   0  0  0  0  0  0  0  0  0  0  0  0
   -4.5296   -2.9330    0.6200 H   0  0  0  0  0  0  0  0  0  0  0  0
   -4.9248    0.8663   -1.2140 H   0  0  0  0  0  0  0  0  0  0  0  0
   -4.7624   -0.6505   -2.1199 H   0  0  0  0  0  0  0  0  0  0  0  0
  1 24  1  0  0  0  0
  1 25  1  0  0  0  0
  1 26  1  0  0  0  0
  2  3  1  0  0  0  0
  2 13  2  0  0  0  0
  2 27  1  0  0  0  0
  3 28  1  0  0  0  0
  3 29  1  0  0  0  0
  3 30  1  0  0  0  0
  4 15  2  0  0  0  0
  5 31  1  0  0  0  0
  5 32  1  0  0  0  0
  5 33  1  0  0  0  0
  6 23  2  0  0  0  0
  7  8  1  0  0  0  0
  7  9  1  0  0  0  0
  7 10  1  0  0  0  0
  7 34  1  6  0  0  0
  8 11  1  0  0  0  0
  8 12  1  0  0  0  0
  8 35  1  1  0  0  0
  9  1  1  1  0  0  0
  9 13  1  0  0  0  0
  9 14  1  0  0  0  0
 10 15  1  0  0  0  0
 10 36  1  0  0  0  0
 10 37  1  0  0  0  0
 11 16  1  0  0  0  0
 11 17  1  0  0  0  0
 11 38  1  6  0  0  0
 12 18  1  0  0  0  0
 12 39  1  0  0  0  0
 12 40  1  0  0  0  0
 13 15  1  0  0  0  0
 14 17  1  0  0  0  0
 14 41  1  0  0  0  0
 14 42  1  0  0  0  0
 16  5  1  1  0  0  0
 16 19  1  0  0  0  0
 16 20  1  0  0  0  0
 17 43  1  0  0  0  0
 17 44  1  0  0  0  0
 18 19  1  0  0  0  0
 18 45  1  0  0  0  0
 18 46  1  0  0  0  0
 19 21  2  0  0  0  0
 20 22  1  0  0  0  0
 20 47  1  0  0  0  0
 20 48  1  0  0  0  0
 21 23  1  0  0  0  0
 21 49  1  0  0  0  0
 22 23  1  0  0  0  0
 22 50  1  0  0  0  0
 22 51  1  0  0  0  0
M  END
>  <Mol_ID>
9947

>  <Formula>
C21H28O2

>  <MolWeight>
312.44582

>  <Cat>
E5184

>  <Name>
(-)-(E)-Guggulsterone

>  <Synonyms>
N/A

>  <Target>
Others

>  <Form>
free base

>  <CAS>
39025-24-6

>  <URL>
https://www.selleckchem.com/products/e-guggulsterone.html

$$$$
