(-?)?-Maackiain
 OpenBabel08302521463D

 33 37  0  0  1  0  0  0  0  0999 V2000
    0.9004    0.0159    0.0255 O   0  0  0  0  0  0  0  0  0  0  0  0
   -1.6840   -3.8191    3.2957 C   0  0  2  0  0  0  0  0  0  0  0  0
   -2.8728   -4.4809    2.5832 C   0  0  2  0  0  0  0  0  0  0  0  0
   -0.9737   -2.8126    2.4296 C   0  0  0  0  0  0  0  0  0  0  0  0
   -0.7727   -4.8747    3.7200 O   0  0  0  0  0  0  0  0  0  0  0  0
   -2.8438   -5.8025    3.2540 C   0  0  0  0  0  0  0  0  0  0  0  0
   -2.5836   -4.5941    1.0932 C   0  0  0  0  0  0  0  0  0  0  0  0
   -1.3710   -2.6074    1.1016 C   0  0  0  0  0  0  0  0  0  0  0  0
    0.0693   -2.0319    2.9521 C   0  0  0  0  0  0  0  0  0  0  0  0
   -1.5894   -5.9743    3.8536 C   0  0  0  0  0  0  0  0  0  0  0  0
   -3.8054   -6.8018    3.2804 C   0  0  0  0  0  0  0  0  0  0  0  0
   -2.3921   -3.3040    0.5098 O   0  0  0  0  0  0  0  0  0  0  0  0
   -0.7531   -1.6381    0.3141 C   0  0  0  0  0  0  0  0  0  0  0  0
    0.7039   -1.0725    2.1581 C   0  0  0  0  0  0  0  0  0  0  0  0
   -1.2251   -7.1515    4.4757 C   0  0  0  0  0  0  0  0  0  0  0  0
   -3.4407   -7.9620    3.9308 C   0  0  0  0  0  0  0  0  0  0  0  0
    0.2908   -0.8909    0.8419 C   0  0  0  0  0  0  0  0  0  0  0  0
   -2.1916   -8.1342    4.5052 C   0  0  0  0  0  0  0  0  0  0  0  0
   -4.2343   -9.0584    4.0776 O   0  0  0  0  0  0  0  0  0  0  0  0
   -2.0581   -9.3637    5.0749 O   0  0  0  0  0  0  0  0  0  0  0  0
   -3.3767   -9.9112    4.8620 C   0  0  0  0  0  0  0  0  0  0  0  0
    1.7073    0.3312    0.4610 H   0  0  0  0  0  0  0  0  0  0  0  0
   -2.0350   -3.3142    4.2080 H   0  0  0  0  0  0  0  0  0  0  0  0
   -3.7908   -3.9126    2.7678 H   0  0  0  0  0  0  0  0  0  0  0  0
   -3.4307   -5.0652    0.5815 H   0  0  0  0  0  0  0  0  0  0  0  0
   -1.7061   -5.2208    0.8760 H   0  0  0  0  0  0  0  0  0  0  0  0
    0.3878   -2.1674    3.9840 H   0  0  0  0  0  0  0  0  0  0  0  0
   -4.7757   -6.6885    2.8164 H   0  0  0  0  0  0  0  0  0  0  0  0
   -1.0727   -1.4824   -0.7120 H   0  0  0  0  0  0  0  0  0  0  0  0
    1.5052   -0.4759    2.5824 H   0  0  0  0  0  0  0  0  0  0  0  0
   -0.2474   -7.2908    4.9186 H   0  0  0  0  0  0  0  0  0  0  0  0
   -3.8476  -10.0730    5.8401 H   0  0  0  0  0  0  0  0  0  0  0  0
   -3.2820  -10.8776    4.3551 H   0  0  0  0  0  0  0  0  0  0  0  0
  1 17  1  0  0  0  0
  1 22  1  0  0  0  0
  2  3  1  0  0  0  0
  2  4  1  0  0  0  0
  2  5  1  0  0  0  0
  2 23  1  1  0  0  0
  3  6  1  0  0  0  0
  3  7  1  0  0  0  0
  3 24  1  1  0  0  0
  4  8  2  0  0  0  0
  4  9  1  0  0  0  0
  5 10  1  0  0  0  0
  6 10  2  0  0  0  0
  6 11  1  0  0  0  0
  7 12  1  0  0  0  0
  7 25  1  0  0  0  0
  7 26  1  0  0  0  0
  8 12  1  0  0  0  0
  8 13  1  0  0  0  0
  9 14  2  0  0  0  0
  9 27  1  0  0  0  0
 10 15  1  0  0  0  0
 11 16  2  0  0  0  0
 11 28  1  0  0  0  0
 13 17  2  0  0  0  0
 13 29  1  0  0  0  0
 14 17  1  0  0  0  0
 14 30  1  0  0  0  0
 15 18  2  0  0  0  0
 15 31  1  0  0  0  0
 16 18  1  0  0  0  0
 16 19  1  0  0  0  0
 18 20  1  0  0  0  0
 19 21  1  0  0  0  0
 20 21  1  0  0  0  0
 21 32  1  0  0  0  0
 21 33  1  0  0  0  0
M  END
>  <Mol_ID>
9708

>  <Formula>
C16H12O5

>  <MolWeight>
284.26348

>  <Cat>
E0900

>  <Name>
(-?)?-Maackiain

>  <Synonyms>
N/A

>  <Target>
Fungal

>  <Form>
free base

>  <CAS>
2035-15-6

>  <URL>
https://www.selleckchem.com/products/-maackiain.html

$$$$
