1,2-Dimethoxybenzene
 OpenBabel08302521363D

 20 20  0  0  0  0  0  0  0  0999 V2000
    1.0369   -0.1335   -0.4195 O   0  0  0  0  0  0  0  0  0  0  0  0
    0.5238   -1.2739   -1.1083 C   0  0  0  0  0  0  0  0  0  0  0  0
    2.5401    2.3657    0.0130 O   0  0  0  0  0  0  0  0  0  0  0  0
    1.2541    2.6134   -0.5307 C   0  0  0  0  0  0  0  0  0  0  0  0
    2.3855   -0.1289   -0.1738 C   0  0  0  0  0  0  0  0  0  0  0  0
    3.0477    1.0964    0.0135 C   0  0  0  0  0  0  0  0  0  0  0  0
    3.1239   -1.3206   -0.0622 C   0  0  0  0  0  0  0  0  0  0  0  0
    4.4327    1.0973    0.2556 C   0  0  0  0  0  0  0  0  0  0  0  0
    4.5026   -1.3007    0.1595 C   0  0  0  0  0  0  0  0  0  0  0  0
    5.1610   -0.0877    0.3078 C   0  0  0  0  0  0  0  0  0  0  0  0
    1.2339   -1.6977   -1.8286 H   0  0  0  0  0  0  0  0  0  0  0  0
    0.2088   -2.0342   -0.3862 H   0  0  0  0  0  0  0  0  0  0  0  0
   -0.3553   -0.9594   -1.6786 H   0  0  0  0  0  0  0  0  0  0  0  0
    1.0448    2.0252   -1.4273 H   0  0  0  0  0  0  0  0  0  0  0  0
    0.4839    2.4808    0.2351 H   0  0  0  0  0  0  0  0  0  0  0  0
    1.2353    3.6652   -0.8384 H   0  0  0  0  0  0  0  0  0  0  0  0
    2.6430   -2.2915   -0.1387 H   0  0  0  0  0  0  0  0  0  0  0  0
    4.9489    2.0441    0.3935 H   0  0  0  0  0  0  0  0  0  0  0  0
    5.0578   -2.2328    0.2222 H   0  0  0  0  0  0  0  0  0  0  0  0
    6.2333   -0.0597    0.4760 H   0  0  0  0  0  0  0  0  0  0  0  0
  1  2  1  0  0  0  0
  1  5  1  0  0  0  0
  2 11  1  0  0  0  0
  2 12  1  0  0  0  0
  2 13  1  0  0  0  0
  3  4  1  0  0  0  0
  3  6  1  0  0  0  0
  4 14  1  0  0  0  0
  4 15  1  0  0  0  0
  4 16  1  0  0  0  0
  5  6  2  0  0  0  0
  5  7  1  0  0  0  0
  6  8  1  0  0  0  0
  7  9  2  0  0  0  0
  7 17  1  0  0  0  0
  8 10  2  0  0  0  0
  8 18  1  0  0  0  0
  9 10  1  0  0  0  0
  9 19  1  0  0  0  0
 10 20  1  0  0  0  0
M  END
>  <Mol_ID>
7068

>  <Formula>
C8H10O2

>  <MolWeight>
138.1638

>  <Cat>
E4081

>  <Name>
1,2-Dimethoxybenzene

>  <Synonyms>
Veratrole

>  <Target>
Others

>  <Form>
Free base

>  <CAS>
91-16-7

>  <URL>
https://www.selleckchem.com/products/1-2-dimethoxybenzene.html

$$$$
