1,3-Dithiane
 OpenBabel08302521363D

 14 14  0  0  0  0  0  0  0  0999 V2000
   -0.0307   -1.7768   -0.2654 C   0  0  0  0  0  0  0  0  0  0  0  0
    1.2463   -1.1867    0.3213 C   0  0  0  0  0  0  0  0  0  0  0  0
   -1.3062   -1.1484    0.2818 C   0  0  0  0  0  0  0  0  0  0  0  0
    1.5006    0.5468   -0.1513 S   0  0  0  0  0  0  0  0  0  0  0  0
   -1.4933    0.5979   -0.1774 S   0  0  0  0  0  0  0  0  0  0  0  0
    0.0093    1.2539    0.5795 C   0  0  0  0  0  0  0  0  0  0  0  0
   -0.0136   -1.7197   -1.3615 H   0  0  0  0  0  0  0  0  0  0  0  0
   -0.0503   -2.8460   -0.0201 H   0  0  0  0  0  0  0  0  0  0  0  0
    1.2463   -1.2629    1.4137 H   0  0  0  0  0  0  0  0  0  0  0  0
    2.1077   -1.7568   -0.0420 H   0  0  0  0  0  0  0  0  0  0  0  0
   -2.1724   -1.6870   -0.1168 H   0  0  0  0  0  0  0  0  0  0  0  0
   -1.3480   -1.2376    1.3727 H   0  0  0  0  0  0  0  0  0  0  0  0
    0.0292    2.3350    0.4166 H   0  0  0  0  0  0  0  0  0  0  0  0
   -0.0022    1.0862    1.6605 H   0  0  0  0  0  0  0  0  0  0  0  0
  1  2  1  0  0  0  0
  1  3  1  0  0  0  0
  1  7  1  0  0  0  0
  1  8  1  0  0  0  0
  2  4  1  0  0  0  0
  2  9  1  0  0  0  0
  2 10  1  0  0  0  0
  3  5  1  0  0  0  0
  3 11  1  0  0  0  0
  3 12  1  0  0  0  0
  4  6  1  0  0  0  0
  5  6  1  0  0  0  0
  6 13  1  0  0  0  0
  6 14  1  0  0  0  0
M  END
>  <Mol_ID>
7084

>  <Formula>
C4H8S2

>  <MolWeight>
120.23632

>  <Cat>
E4099

>  <Name>
1,3-Dithiane

>  <Synonyms>
1,3-Dithiane

>  <Target>
Endogenous Metabolite;Antibacterial;Anti-infection

>  <Form>
free base

>  <CAS>
505-23-7

>  <URL>
https://www.selleckchem.com/products/1-3-dithiane.html

$$$$
