1,3-Dihydroxyacetone
 OpenBabel08302521363D

 12 11  0  0  0  0  0  0  0  0999 V2000
    0.9425   -0.0961   -0.1019 C   0  0  0  0  0  0  0  0  0  0  0  0
    0.1300   -0.3896    1.1555 C   0  0  0  0  0  0  0  0  0  0  0  0
    0.1515    0.3773   -1.3128 C   0  0  0  0  0  0  0  0  0  0  0  0
    2.1664   -0.2492   -0.1402 O   0  0  0  0  0  0  0  0  0  0  0  0
    0.9251   -0.7243    2.2802 O   0  0  0  0  0  0  0  0  0  0  0  0
    0.8618    0.1941   -2.5245 O   0  0  0  0  0  0  0  0  0  0  0  0
   -0.4594    0.4958    1.4092 H   0  0  0  0  0  0  0  0  0  0  0  0
   -0.5418   -1.2267    0.9489 H   0  0  0  0  0  0  0  0  0  0  0  0
   -0.7807   -0.1929   -1.3782 H   0  0  0  0  0  0  0  0  0  0  0  0
   -0.0771    1.4383   -1.1905 H   0  0  0  0  0  0  0  0  0  0  0  0
    1.6552   -1.2838    1.9532 H   0  0  0  0  0  0  0  0  0  0  0  0
    1.7973    0.4016   -2.3353 H   0  0  0  0  0  0  0  0  0  0  0  0
  1  2  1  0  0  0  0
  1  3  1  0  0  0  0
  1  4  2  0  0  0  0
  2  5  1  0  0  0  0
  2  7  1  0  0  0  0
  2  8  1  0  0  0  0
  3  6  1  0  0  0  0
  3  9  1  0  0  0  0
  3 10  1  0  0  0  0
  5 11  1  0  0  0  0
  6 12  1  0  0  0  0
M  END
>  <Mol_ID>
7251

>  <Formula>
C3H6O3

>  <MolWeight>
90.07794

>  <Cat>
E4263

>  <Name>
1,3-Dihydroxyacetone

>  <Target>
Others

>  <Form>
Free base

>  <CAS>
96-26-4

>  <URL>
https://www.selleckchem.com/products/1-3-dihydroxyacetone.html

$$$$
