1,3-Dimethyluracil
 OpenBabel08302520383D

 18 18  0  0  0  0  0  0  0  0999 V2000
   -0.7624   -0.6754   -0.0029 C   0  0  0  0  0  0  0  0  0  0  0  0
    0.6305   -0.6918    0.0105 N   0  0  0  0  0  0  0  0  0  0  0  0
   -1.3521    0.5885   -0.0087 N   0  0  0  0  0  0  0  0  0  0  0  0
   -1.4353   -1.7087   -0.0134 O   0  0  0  0  0  0  0  0  0  0  0  0
    1.4231    0.4396    0.0068 C   0  0  0  0  0  0  0  0  0  0  0  0
    1.2686   -1.9926    0.0055 C   0  0  0  0  0  0  0  0  0  0  0  0
   -0.6166    1.7478    0.0156 C   0  0  0  0  0  0  0  0  0  0  0  0
   -2.8040    0.6502   -0.0509 C   0  0  0  0  0  0  0  0  0  0  0  0
    0.7144    1.7301    0.0283 C   0  0  0  0  0  0  0  0  0  0  0  0
    2.6517    0.4459   -0.0143 O   0  0  0  0  0  0  0  0  0  0  0  0
    0.9491   -2.5471    0.8940 H   0  0  0  0  0  0  0  0  0  0  0  0
    0.9417   -2.5458   -0.8812 H   0  0  0  0  0  0  0  0  0  0  0  0
    2.3587   -1.9238    0.0015 H   0  0  0  0  0  0  0  0  0  0  0  0
   -1.1596    2.6886    0.0234 H   0  0  0  0  0  0  0  0  0  0  0  0
   -3.1522    0.1499   -0.9605 H   0  0  0  0  0  0  0  0  0  0  0  0
   -3.2102    0.1199    0.8164 H   0  0  0  0  0  0  0  0  0  0  0  0
   -3.1664    1.6822   -0.0465 H   0  0  0  0  0  0  0  0  0  0  0  0
    1.3174    2.6282    0.0464 H   0  0  0  0  0  0  0  0  0  0  0  0
  1  2  1  0  0  0  0
  1  3  1  0  0  0  0
  1  4  2  0  0  0  0
  2  5  1  0  0  0  0
  2  6  1  0  0  0  0
  3  7  1  0  0  0  0
  3  8  1  0  0  0  0
  5  9  1  0  0  0  0
  5 10  2  0  0  0  0
  6 11  1  0  0  0  0
  6 12  1  0  0  0  0
  6 13  1  0  0  0  0
  7  9  2  0  0  0  0
  7 14  1  0  0  0  0
  8 15  1  0  0  0  0
  8 16  1  0  0  0  0
  8 17  1  0  0  0  0
  9 18  1  0  0  0  0
M  END
>  <Mol_ID>
3533

>  <Formula>
C6H8N2O2

>  <MolWeight>
140.13992

>  <Cat>
S6050

>  <Name>
1,3-Dimethyluracil

>  <Synonyms>
N,N'-dimethyluracil

>  <Target>
Others

>  <Form>
free base

>  <CAS>
874-14-6

>  <URL>
http://www.selleck.cn/products/1-3-dimethyluracil.html

$$$$
