1,4-Dichlorobenzene
 OpenBabel08302520393D

 12 12  0  0  0  0  0  0  0  0999 V2000
    1.3820   -0.2136    0.0079 C   0  0  0  0  0  0  0  0  0  0  0  0
    0.5099   -1.3020   -0.0007 C   0  0  0  0  0  0  0  0  0  0  0  0
    0.8756    1.0862    0.0097 C   0  0  0  0  0  0  0  0  0  0  0  0
   -0.8690   -1.0908   -0.0099 C   0  0  0  0  0  0  0  0  0  0  0  0
   -0.5033    1.2972    0.0042 C   0  0  0  0  0  0  0  0  0  0  0  0
   -1.3756    0.2089   -0.0062 C   0  0  0  0  0  0  0  0  0  0  0  0
    2.4562   -0.3781    0.0134 H   0  0  0  0  0  0  0  0  0  0  0  0
    0.9045   -2.3145   -0.0013 H   0  0  0  0  0  0  0  0  0  0  0  0
    1.5551    1.9342    0.0158 H   0  0  0  0  0  0  0  0  0  0  0  0
   -1.5485   -1.9389   -0.0189 H   0  0  0  0  0  0  0  0  0  0  0  0
   -0.8979    2.3098    0.0079 H   0  0  0  0  0  0  0  0  0  0  0  0
   -2.4498    0.3732   -0.0123 H   0  0  0  0  0  0  0  0  0  0  0  0
  1  2  2  0  0  0  0
  1  3  1  0  0  0  0
  1  7  1  0  0  0  0
  2  4  1  0  0  0  0
  2  8  1  0  0  0  0
  3  5  2  0  0  0  0
  3  9  1  0  0  0  0
  4  6  2  0  0  0  0
  4 10  1  0  0  0  0
  5  6  1  0  0  0  0
  5 11  1  0  0  0  0
  6 12  1  0  0  0  0
M  END
>  <Mol_ID>
3648

>  <Formula>
C6H4Cl2

>  <MolWeight>
147.00196

>  <Cat>
S6300

>  <Name>
1,4-Dichlorobenzene

>  <Synonyms>
p-Dichlorobenzene, para-dichlorobenzene

>  <Target>
Others

>  <Form>
free base

>  <CAS>
106-46-7

>  <URL>
http://www.selleck.cn/products/1-4-dichlorobenzene.html

$$$$
