1,4-Dimethoxybenzene
 OpenBabel08302521363D

 20 20  0  0  0  0  0  0  0  0999 V2000
    1.0920    0.0023   -0.0769 O   0  0  0  0  0  0  0  0  0  0  0  0
    0.3329    1.2037   -0.1481 C   0  0  0  0  0  0  0  0  0  0  0  0
    6.6164    0.0573    0.2904 O   0  0  0  0  0  0  0  0  0  0  0  0
    7.3552    1.2723    0.3282 C   0  0  0  0  0  0  0  0  0  0  0  0
    2.4491    0.1425    0.0099 C   0  0  0  0  0  0  0  0  0  0  0  0
    3.1445    1.3504    0.0401 C   0  0  0  0  0  0  0  0  0  0  0  0
    3.1665   -1.0545    0.0742 C   0  0  0  0  0  0  0  0  0  0  0  0
    4.5412    1.3653    0.1409 C   0  0  0  0  0  0  0  0  0  0  0  0
    4.5615   -1.0391    0.1708 C   0  0  0  0  0  0  0  0  0  0  0  0
    5.2568    0.1697    0.2018 C   0  0  0  0  0  0  0  0  0  0  0  0
    0.5088    1.8402    0.7263 H   0  0  0  0  0  0  0  0  0  0  0  0
    0.5430    1.7438   -1.0776 H   0  0  0  0  0  0  0  0  0  0  0  0
   -0.7270    0.9326   -0.1495 H   0  0  0  0  0  0  0  0  0  0  0  0
    7.1651    1.8835   -0.5607 H   0  0  0  0  0  0  0  0  0  0  0  0
    7.1381    1.8312    1.2449 H   0  0  0  0  0  0  0  0  0  0  0  0
    8.4193    1.0201    0.3324 H   0  0  0  0  0  0  0  0  0  0  0  0
    2.6334    2.3054   -0.0105 H   0  0  0  0  0  0  0  0  0  0  0  0
    2.6381   -2.0031    0.0510 H   0  0  0  0  0  0  0  0  0  0  0  0
    5.0342    2.3300    0.1648 H   0  0  0  0  0  0  0  0  0  0  0  0
    5.1064   -1.9783    0.2202 H   0  0  0  0  0  0  0  0  0  0  0  0
  1  2  1  0  0  0  0
  1  5  1  0  0  0  0
  2 11  1  0  0  0  0
  2 12  1  0  0  0  0
  2 13  1  0  0  0  0
  3  4  1  0  0  0  0
  3 10  1  0  0  0  0
  4 14  1  0  0  0  0
  4 15  1  0  0  0  0
  4 16  1  0  0  0  0
  5  6  2  0  0  0  0
  5  7  1  0  0  0  0
  6  8  1  0  0  0  0
  6 17  1  0  0  0  0
  7  9  2  0  0  0  0
  7 18  1  0  0  0  0
  8 10  2  0  0  0  0
  8 19  1  0  0  0  0
  9 10  1  0  0  0  0
  9 20  1  0  0  0  0
M  END
>  <Mol_ID>
7199

>  <Formula>
C8H10O2

>  <MolWeight>
138.1638

>  <Cat>
E4199

>  <Name>
1,4-Dimethoxybenzene

>  <Target>
Others

>  <Form>
Free base

>  <CAS>
150-78-7

>  <URL>
https://www.selleckchem.com/products/1-4-dimethoxybenzene.html

$$$$
