1,5-Diaminopentane dihydrochloride
 OpenBabel08302520393D

 21 20  0  0  0  0  0  0  0  0999 V2000
    1.0060    0.0974   -0.0407 C   0  0  0  0  0  0  0  0  0  0  0  0
    0.4599    1.5231    0.1133 C   0  0  0  0  0  0  0  0  0  0  0  0
    0.4605   -0.5656   -1.3118 C   0  0  0  0  0  0  0  0  0  0  0  0
    0.9296    2.2397    1.3806 C   0  0  0  0  0  0  0  0  0  0  0  0
    0.9930   -1.9817   -1.5502 C   0  0  0  0  0  0  0  0  0  0  0  0
    2.3775    2.4115    1.4258 N   0  0  0  0  0  0  0  0  0  0  0  0
    0.6207   -2.9070   -0.4879 N   0  0  0  0  0  0  0  0  0  0  0  0
    0.7237   -0.4854    0.8431 H   0  0  0  0  0  0  0  0  0  0  0  0
    2.1008    0.1137   -0.0883 H   0  0  0  0  0  0  0  0  0  0  0  0
    0.7348    2.1173   -0.7669 H   0  0  0  0  0  0  0  0  0  0  0  0
   -0.6363    1.4815    0.1331 H   0  0  0  0  0  0  0  0  0  0  0  0
   -0.6360   -0.5894   -1.2743 H   0  0  0  0  0  0  0  0  0  0  0  0
    0.7310    0.0496   -2.1790 H   0  0  0  0  0  0  0  0  0  0  0  0
    0.4638    3.2308    1.4105 H   0  0  0  0  0  0  0  0  0  0  0  0
    0.5958    1.6989    2.2724 H   0  0  0  0  0  0  0  0  0  0  0  0
    0.5843   -2.3553   -2.4955 H   0  0  0  0  0  0  0  0  0  0  0  0
    2.0837   -1.9617   -1.6542 H   0  0  0  0  0  0  0  0  0  0  0  0
    2.6164    3.0525    2.1800 H   0  0  0  0  0  0  0  0  0  0  0  0
    2.8157    1.5234    1.6675 H   0  0  0  0  0  0  0  0  0  0  0  0
    0.9756   -3.8353   -0.7134 H   0  0  0  0  0  0  0  0  0  0  0  0
    1.0802   -2.6362    0.3806 H   0  0  0  0  0  0  0  0  0  0  0  0
  1  2  1  0  0  0  0
  1  3  1  0  0  0  0
  1  8  1  0  0  0  0
  1  9  1  0  0  0  0
  2  4  1  0  0  0  0
  2 10  1  0  0  0  0
  2 11  1  0  0  0  0
  3  5  1  0  0  0  0
  3 12  1  0  0  0  0
  3 13  1  0  0  0  0
  4  6  1  0  0  0  0
  4 14  1  0  0  0  0
  4 15  1  0  0  0  0
  5  7  1  0  0  0  0
  5 16  1  0  0  0  0
  5 17  1  0  0  0  0
  6 18  1  0  0  0  0
  6 19  1  0  0  0  0
  7 20  1  0  0  0  0
  7 21  1  0  0  0  0
M  END
>  <Mol_ID>
3680

>  <Formula>
C5H16Cl2N2

>  <MolWeight>
175.09994

>  <Cat>
S6357

>  <Name>
1,5-Diaminopentane dihydrochloride

>  <Synonyms>
Cadaverine dihydrochloride

>  <Target>
Others

>  <Form>
dihydrochloride

>  <CAS>
1476-39-7

>  <URL>
http://www.selleck.cn/products/1-5-diaminopentane-dihydrochloride.html

$$$$
