1-[2-Hydroxy-4-methoxy-5-(3-methyl-2-butenyl)phen
 OpenBabel08302521453D

 47 48  0  0  0  0  0  0  0  0999 V2000
    0.7750   -0.1129   -0.0397 C   0  0  0  0  0  0  0  0  0  0  0  0
    2.1530   -0.5499    0.3831 C   0  0  0  0  0  0  0  0  0  0  0  0
    2.6940   -0.3974    1.6094 C   0  0  0  0  0  0  0  0  0  0  0  0
    4.1438   -0.7172    1.8549 C   0  0  0  0  0  0  0  0  0  0  0  0
    1.9427    0.1018    2.8133 C   0  0  0  0  0  0  0  0  0  0  0  0
    1.3289    2.5531   -1.5182 O   0  0  0  0  0  0  0  0  0  0  0  0
    2.4524    2.4578   -0.6529 C   0  0  0  0  0  0  0  0  0  0  0  0
   -0.6410   -1.9131   -4.4491 C   0  0  0  0  0  0  0  0  0  0  0  0
   -0.4455   -1.9755   -5.9266 C   0  0  0  0  0  0  0  0  0  0  0  0
   -1.1516   -2.8446   -3.8357 O   0  0  0  0  0  0  0  0  0  0  0  0
   -0.6215   -3.1100   -6.6148 C   0  0  0  0  0  0  0  0  0  0  0  0
   -0.4858    0.9463   -5.4567 O   0  0  0  0  0  0  0  0  0  0  0  0
   -0.3528   -3.4741  -12.2366 O   0  0  0  0  0  0  0  0  0  0  0  0
    0.6549    0.1637   -1.5269 C   0  0  0  0  0  0  0  0  0  0  0  0
    0.9117    1.4033   -2.1314 C   0  0  0  0  0  0  0  0  0  0  0  0
    0.1692   -0.8911   -2.3415 C   0  0  0  0  0  0  0  0  0  0  0  0
    0.5650    1.5956   -3.4759 C   0  0  0  0  0  0  0  0  0  0  0  0
   -0.1549   -0.7100   -3.6981 C   0  0  0  0  0  0  0  0  0  0  0  0
   -0.0110    0.5709   -4.2292 C   0  0  0  0  0  0  0  0  0  0  0  0
   -0.4902   -3.1981   -8.0811 C   0  0  0  0  0  0  0  0  0  0  0  0
    0.2851   -2.2970   -8.8257 C   0  0  0  0  0  0  0  0  0  0  0  0
   -1.1608   -4.2223   -8.7648 C   0  0  0  0  0  0  0  0  0  0  0  0
    0.3386   -2.3738  -10.2210 C   0  0  0  0  0  0  0  0  0  0  0  0
   -1.1023   -4.3077  -10.1598 C   0  0  0  0  0  0  0  0  0  0  0  0
   -0.3641   -3.3754  -10.8771 C   0  0  0  0  0  0  0  0  0  0  0  0
    0.4421    0.7751    0.5089 H   0  0  0  0  0  0  0  0  0  0  0  0
    0.0635   -0.9046    0.2294 H   0  0  0  0  0  0  0  0  0  0  0  0
    2.7762   -0.9608   -0.4105 H   0  0  0  0  0  0  0  0  0  0  0  0
    4.6763    0.1936    2.1525 H   0  0  0  0  0  0  0  0  0  0  0  0
    4.2475   -1.4584    2.6522 H   0  0  0  0  0  0  0  0  0  0  0  0
    4.6373   -1.1124    0.9622 H   0  0  0  0  0  0  0  0  0  0  0  0
    2.1340    1.1670    2.9707 H   0  0  0  0  0  0  0  0  0  0  0  0
    0.8624   -0.0537    2.7244 H   0  0  0  0  0  0  0  0  0  0  0  0
    2.2613   -0.4385    3.7128 H   0  0  0  0  0  0  0  0  0  0  0  0
    2.1180    2.2765    0.3707 H   0  0  0  0  0  0  0  0  0  0  0  0
    3.1862    1.7148   -0.9808 H   0  0  0  0  0  0  0  0  0  0  0  0
    2.9522    3.4325   -0.6457 H   0  0  0  0  0  0  0  0  0  0  0  0
   -0.1582   -1.0670   -6.4320 H   0  0  0  0  0  0  0  0  0  0  0  0
   -0.9051   -4.0263   -6.0936 H   0  0  0  0  0  0  0  0  0  0  0  0
   -1.4401    0.7332   -5.4632 H   0  0  0  0  0  0  0  0  0  0  0  0
    0.1674   -2.7379  -12.5967 H   0  0  0  0  0  0  0  0  0  0  0  0
    0.0033   -1.8723   -1.8900 H   0  0  0  0  0  0  0  0  0  0  0  0
    0.6985    2.5755   -3.9275 H   0  0  0  0  0  0  0  0  0  0  0  0
    0.8589   -1.5108   -8.3393 H   0  0  0  0  0  0  0  0  0  0  0  0
   -1.7548   -4.9535   -8.2226 H   0  0  0  0  0  0  0  0  0  0  0  0
    0.9318   -1.6475  -10.7690 H   0  0  0  0  0  0  0  0  0  0  0  0
   -1.6403   -5.0939  -10.6844 H   0  0  0  0  0  0  0  0  0  0  0  0
  1  2  1  0  0  0  0
  1 14  1  0  0  0  0
  1 26  1  0  0  0  0
  1 27  1  0  0  0  0
  2  3  2  0  0  0  0
  2 28  1  0  0  0  0
  3  4  1  0  0  0  0
  3  5  1  0  0  0  0
  4 29  1  0  0  0  0
  4 30  1  0  0  0  0
  4 31  1  0  0  0  0
  5 32  1  0  0  0  0
  5 33  1  0  0  0  0
  5 34  1  0  0  0  0
  6  7  1  0  0  0  0
  6 15  1  0  0  0  0
  7 35  1  0  0  0  0
  7 36  1  0  0  0  0
  7 37  1  0  0  0  0
  8  9  1  0  0  0  0
  8 10  2  0  0  0  0
  8 18  1  0  0  0  0
  9 11  2  0  0  0  0
  9 38  1  0  0  0  0
 11 20  1  0  0  0  0
 11 39  1  0  0  0  0
 12 19  1  0  0  0  0
 12 40  1  0  0  0  0
 13 25  1  0  0  0  0
 13 41  1  0  0  0  0
 14 15  2  0  0  0  0
 14 16  1  0  0  0  0
 15 17  1  0  0  0  0
 16 18  2  0  0  0  0
 16 42  1  0  0  0  0
 17 19  2  0  0  0  0
 17 43  1  0  0  0  0
 18 19  1  0  0  0  0
 20 21  2  0  0  0  0
 20 22  1  0  0  0  0
 21 23  1  0  0  0  0
 21 44  1  0  0  0  0
 22 24  2  0  0  0  0
 22 45  1  0  0  0  0
 23 25  2  0  0  0  0
 23 46  1  0  0  0  0
 24 25  1  0  0  0  0
 24 47  1  0  0  0  0
M  END
>  <Mol_ID>
9577

>  <Formula>
C21H22O4

>  <MolWeight>
338.39698

>  <Cat>
E2020

>  <Name>
1-[2-Hydroxy-4-methoxy-5-(3-methyl-2-butenyl)phen

>  <Synonyms>
4'-O-Methylbavachalcone

>  <Target>
SARS-CoV

>  <Form>
free base

>  <CAS>
20784-60-5

>  <URL>
https://www.selleckchem.com/products/4-o-methylbavachalcone.html

$$$$
