1-Furfurylpyrrole
 OpenBabel08302520393D

 20 21  0  0  0  0  0  0  0  0999 V2000
   -0.1198    1.1199   -0.0049 C   0  0  0  0  0  0  0  0  0  0  0  0
   -0.6705    2.4979   -0.0048 C   0  0  0  0  0  0  0  0  0  0  0  0
    1.0788    0.5750   -0.4232 C   0  0  0  0  0  0  0  0  0  0  0  0
   -0.9050    0.1447    0.5403 O   0  0  0  0  0  0  0  0  0  0  0  0
   -1.3967    2.7847   -1.2382 N   0  0  0  0  0  0  0  0  0  0  0  0
    1.0086   -0.8117   -0.1427 C   0  0  0  0  0  0  0  0  0  0  0  0
   -0.2190   -1.0238    0.4372 C   0  0  0  0  0  0  0  0  0  0  0  0
   -2.7369    2.5608   -1.4388 C   0  0  0  0  0  0  0  0  0  0  0  0
   -0.8715    3.3988   -2.3484 C   0  0  0  0  0  0  0  0  0  0  0  0
   -3.0596    3.0006   -2.7051 C   0  0  0  0  0  0  0  0  0  0  0  0
   -1.8799    3.5326   -3.2781 C   0  0  0  0  0  0  0  0  0  0  0  0
   -1.3634    2.6509    0.8300 H   0  0  0  0  0  0  0  0  0  0  0  0
    0.1327    3.2377    0.0863 H   0  0  0  0  0  0  0  0  0  0  0  0
    1.8987    1.1109   -0.8802 H   0  0  0  0  0  0  0  0  0  0  0  0
    1.7577   -1.5646   -0.3424 H   0  0  0  0  0  0  0  0  0  0  0  0
   -0.7295   -1.9003    0.8117 H   0  0  0  0  0  0  0  0  0  0  0  0
   -3.3464    2.0992   -0.6737 H   0  0  0  0  0  0  0  0  0  0  0  0
    0.1705    3.6846   -2.3936 H   0  0  0  0  0  0  0  0  0  0  0  0
   -4.0388    2.9455   -3.1618 H   0  0  0  0  0  0  0  0  0  0  0  0
   -1.7795    3.9693   -4.2639 H   0  0  0  0  0  0  0  0  0  0  0  0
  1  2  1  0  0  0  0
  1  3  2  0  0  0  0
  1  4  1  0  0  0  0
  2  5  1  0  0  0  0
  2 12  1  0  0  0  0
  2 13  1  0  0  0  0
  3  6  1  0  0  0  0
  3 14  1  0  0  0  0
  4  7  1  0  0  0  0
  5  8  1  0  0  0  0
  5  9  1  0  0  0  0
  6  7  2  0  0  0  0
  6 15  1  0  0  0  0
  7 16  1  0  0  0  0
  8 10  2  0  0  0  0
  8 17  1  0  0  0  0
  9 11  2  0  0  0  0
  9 18  1  0  0  0  0
 10 11  1  0  0  0  0
 10 19  1  0  0  0  0
 11 20  1  0  0  0  0
M  END
>  <Mol_ID>
3568

>  <Formula>
C9H9NO

>  <MolWeight>
147.17386

>  <Cat>
S6107

>  <Name>
1-Furfurylpyrrole

>  <Synonyms>
N-Furfurylpyrrole

>  <Target>
Others

>  <Form>
free base

>  <CAS>
1438-94-4

>  <URL>
http://www.selleck.cn/products/furfurylpyrrole.html

$$$$
