1-Methylxanthine
 OpenBabel08302521373D

 18 19  0  0  0  0  0  0  0  0999 V2000
    0.9127   -0.0936    0.0171 O   0  0  0  0  0  0  0  0  0  0  0  0
    5.0005    2.1249   -0.0035 O   0  0  0  0  0  0  0  0  0  0  0  0
    2.2159    2.3359    0.0210 C   0  0  0  0  0  0  0  0  0  0  0  0
    4.2700   -1.2880   -0.0008 C   0  0  0  0  0  0  0  0  0  0  0  0
    2.9121   -1.2772    0.0063 C   0  0  0  0  0  0  0  0  0  0  0  0
    4.9715   -0.1274   -0.0043 N   0  0  0  0  0  0  0  0  0  0  0  0
    4.7774   -2.5432   -0.0034 N   0  0  0  0  0  0  0  0  0  0  0  0
    2.1397   -0.0860    0.0119 C   0  0  0  0  0  0  0  0  0  0  0  0
    2.5455   -2.5899    0.0072 N   0  0  0  0  0  0  0  0  0  0  0  0
    4.3320    1.0907    0.0007 C   0  0  0  0  0  0  0  0  0  0  0  0
    3.7094   -3.3193    0.0021 C   0  0  0  0  0  0  0  0  0  0  0  0
    2.9276    1.0744    0.0108 N   0  0  0  0  0  0  0  0  0  0  0  0
    1.5697    2.3852   -0.8614 H   0  0  0  0  0  0  0  0  0  0  0  0
    1.5816    2.3769    0.9125 H   0  0  0  0  0  0  0  0  0  0  0  0
    2.8872    3.1979    0.0208 H   0  0  0  0  0  0  0  0  0  0  0  0
    5.9804   -0.1626   -0.0102 H   0  0  0  0  0  0  0  0  0  0  0  0
    1.5995   -2.9498    0.0116 H   0  0  0  0  0  0  0  0  0  0  0  0
    3.7111   -4.4020    0.0027 H   0  0  0  0  0  0  0  0  0  0  0  0
  1  8  2  0  0  0  0
  2 10  2  0  0  0  0
  3 12  1  0  0  0  0
  3 13  1  0  0  0  0
  3 14  1  0  0  0  0
  3 15  1  0  0  0  0
  4  5  2  0  0  0  0
  4  6  1  0  0  0  0
  4  7  1  0  0  0  0
  5  8  1  0  0  0  0
  5  9  1  0  0  0  0
  6 10  1  0  0  0  0
  6 16  1  0  0  0  0
  7 11  2  0  0  0  0
  8 12  1  0  0  0  0
  9 11  1  0  0  0  0
  9 17  1  0  0  0  0
 10 12  1  0  0  0  0
 11 18  1  0  0  0  0
M  END
>  <Mol_ID>
7401

>  <Formula>
C6H6N4O2

>  <MolWeight>
166.13744

>  <Cat>
E4493

>  <Name>
1-Methylxanthine

>  <Synonyms>
1-Methylxanthine

>  <Target>
Endogenous Metabolite

>  <Form>
Free base

>  <CAS>
6136-37-4

>  <URL>
https://www.selleckchem.com/products/1-methylxanthine.html

$$$$
