1-Methyl-7-nitroisatoic anhydride (1M7)
 OpenBabel08302521353D

 22 23  0  0  0  0  0  0  0  0999 V2000
    2.3896    0.7157    0.0625 O   0  0  0  0  0  0  0  0  0  0  0  0
    1.2157    2.6245    0.1788 O   0  0  0  0  0  0  0  0  0  0  0  0
    3.5460   -1.1845   -0.0749 O   0  0  0  0  0  0  0  0  0  0  0  0
   -3.6183   -2.7320    0.0501 O   0  5  0  0  0  0  0  0  0  0  0  0
   -4.7442   -0.8515   -0.0659 O   0  0  0  0  0  0  0  0  0  0  0  0
    1.2605   -1.3665    0.0513 N   0  0  0  0  0  0  0  0  0  0  0  0
   -3.6893   -1.4963   -0.0006 N   0  3  0  0  0  0  0  0  0  0  0  0
    0.0055   -0.7285    0.0771 C   0  0  0  0  0  0  0  0  0  0  0  0
   -0.0265    0.6579    0.0594 C   0  0  0  0  0  0  0  0  0  0  0  0
   -1.2074   -1.4348    0.0869 C   0  0  0  0  0  0  0  0  0  0  0  0
   -1.2462    1.3532   -0.0047 C   0  0  0  0  0  0  0  0  0  0  0  0
   -2.4280   -0.7427    0.0172 C   0  0  0  0  0  0  0  0  0  0  0  0
   -2.4522    0.6535   -0.0462 C   0  0  0  0  0  0  0  0  0  0  0  0
    1.2361    1.4001    0.1066 C   0  0  0  0  0  0  0  0  0  0  0  0
    2.4475   -0.6408    0.0072 C   0  0  0  0  0  0  0  0  0  0  0  0
    1.3371   -2.8208   -0.0200 C   0  0  0  0  0  0  0  0  0  0  0  0
   -1.2181   -2.5209    0.1384 H   0  0  0  0  0  0  0  0  0  0  0  0
   -1.2564    2.4430   -0.0313 H   0  0  0  0  0  0  0  0  0  0  0  0
   -3.3874    1.2056   -0.1234 H   0  0  0  0  0  0  0  0  0  0  0  0
    0.8949   -3.2517    0.8835 H   0  0  0  0  0  0  0  0  0  0  0  0
    0.8001   -3.1681   -0.9089 H   0  0  0  0  0  0  0  0  0  0  0  0
    2.3675   -3.1786   -0.0951 H   0  0  0  0  0  0  0  0  0  0  0  0
  1 14  1  0  0  0  0
  1 15  1  0  0  0  0
  2 14  2  0  0  0  0
  3 15  2  0  0  0  0
  4  7  1  0  0  0  0
  5  7  2  0  0  0  0
  6  8  1  0  0  0  0
  6 15  1  0  0  0  0
  6 16  1  0  0  0  0
  7 12  1  0  0  0  0
  8  9  2  0  0  0  0
  8 10  1  0  0  0  0
  9 11  1  0  0  0  0
  9 14  1  0  0  0  0
 10 12  2  0  0  0  0
 10 17  1  0  0  0  0
 11 13  2  0  0  0  0
 11 18  1  0  0  0  0
 12 13  1  0  0  0  0
 13 19  1  0  0  0  0
 16 20  1  0  0  0  0
 16 21  1  0  0  0  0
 16 22  1  0  0  0  0
M  CHG  2   4  -1   7   1
M  END
>  <Mol_ID>
6624

>  <Formula>
C9H6N2O5

>  <MolWeight>
222.15434

>  <Cat>
S0310

>  <Name>
1-Methyl-7-nitroisatoic anhydride (1M7)

>  <Synonyms>
N/A

>  <Target>
Dyes

>  <Form>
Free base

>  <CAS>
73043-80-8

>  <URL>
http://www.selleckchem.com/products/1m7.html

$$$$
