1-Naphthol
 OpenBabel08302521363D

 19 20  0  0  0  0  0  0  0  0999 V2000
   -1.7479   -2.0406   -0.0103 O   0  0  0  0  0  0  0  0  0  0  0  0
    0.4287    0.9271    0.0022 C   0  0  0  0  0  0  0  0  0  0  0  0
    0.0305   -0.4304   -0.0049 C   0  0  0  0  0  0  0  0  0  0  0  0
   -0.5504    1.9346    0.0040 C   0  0  0  0  0  0  0  0  0  0  0  0
    1.7971    1.2469    0.0065 C   0  0  0  0  0  0  0  0  0  0  0  0
   -1.3478   -0.7284   -0.0079 C   0  0  0  0  0  0  0  0  0  0  0  0
    1.0282   -1.4266   -0.0091 C   0  0  0  0  0  0  0  0  0  0  0  0
   -1.9090    1.6140   -0.0027 C   0  0  0  0  0  0  0  0  0  0  0  0
    2.7673    0.2435    0.0013 C   0  0  0  0  0  0  0  0  0  0  0  0
   -2.3107    0.2813   -0.0084 C   0  0  0  0  0  0  0  0  0  0  0  0
    2.3834   -1.0928   -0.0069 C   0  0  0  0  0  0  0  0  0  0  0  0
   -2.7178   -2.0709    0.0081 H   0  0  0  0  0  0  0  0  0  0  0  0
   -0.2585    2.9827    0.0094 H   0  0  0  0  0  0  0  0  0  0  0  0
    2.1185    2.2859    0.0131 H   0  0  0  0  0  0  0  0  0  0  0  0
    0.7435   -2.4770   -0.0152 H   0  0  0  0  0  0  0  0  0  0  0  0
   -2.6522    2.4074   -0.0037 H   0  0  0  0  0  0  0  0  0  0  0  0
    3.8216    0.5069    0.0033 H   0  0  0  0  0  0  0  0  0  0  0  0
   -3.3709    0.0487   -0.0142 H   0  0  0  0  0  0  0  0  0  0  0  0
    3.1344   -1.8781   -0.0118 H   0  0  0  0  0  0  0  0  0  0  0  0
  1  6  1  0  0  0  0
  1 12  1  0  0  0  0
  2  3  1  0  0  0  0
  2  4  2  0  0  0  0
  2  5  1  0  0  0  0
  3  6  2  0  0  0  0
  3  7  1  0  0  0  0
  4  8  1  0  0  0  0
  4 13  1  0  0  0  0
  5  9  2  0  0  0  0
  5 14  1  0  0  0  0
  6 10  1  0  0  0  0
  7 11  2  0  0  0  0
  7 15  1  0  0  0  0
  8 10  2  0  0  0  0
  8 16  1  0  0  0  0
  9 11  1  0  0  0  0
  9 17  1  0  0  0  0
 10 18  1  0  0  0  0
 11 19  1  0  0  0  0
M  END
>  <Mol_ID>
7257

>  <Formula>
C10H8O

>  <MolWeight>
144.16992

>  <Cat>
E4271

>  <Name>
1-Naphthol

>  <Synonyms>
Furro ER, NSC 9586, Nako TRB, 1-hydroxy-naphthalene

>  <Target>
Others

>  <Form>
Free base

>  <CAS>
90-15-3

>  <URL>
https://www.selleckchem.com/products/1-naphthol.html

$$$$
