1-Naphthyl PP1(1-NA-PP1)
 OpenBabel08302521243D

 43 46  0  0  0  0  0  0  0  0999 V2000
    1.9511   -1.3733    0.2052 C   0  0  0  0  0  0  0  0  0  0  0  0
    0.5157   -1.0099    0.1752 C   0  0  0  0  0  0  0  0  0  0  0  0
    2.8896   -2.7385    0.1874 C   0  0  0  0  0  0  0  0  0  0  0  0
    2.6316   -0.1687    0.2568 N   0  0  0  0  0  0  0  0  0  0  0  0
    0.4346    0.3913    0.1564 C   0  0  0  0  0  0  0  0  0  0  0  0
   -0.7422   -1.6184    0.1112 C   0  0  0  0  0  0  0  0  0  0  0  0
    2.4967   -4.3235   -0.3636 C   0  0  0  0  0  0  0  0  0  0  0  0
    4.2435   -2.4825    0.3669 C   0  0  0  0  0  0  0  0  0  0  0  0
    1.7116    0.8659    0.1786 N   0  0  0  0  0  0  0  0  0  0  0  0
   -0.6656    1.1734    0.0803 N   0  0  0  0  0  0  0  0  0  0  0  0
   -1.8785   -0.8658    0.0681 N   0  0  0  0  0  0  0  0  0  0  0  0
   -0.9232   -2.9707    0.0408 N   0  0  0  0  0  0  0  0  0  0  0  0
    3.2661   -4.2260   -1.3911 C   0  0  0  0  0  0  0  0  0  0  0  0
    2.3405   -5.9826   -0.6262 C   0  0  0  0  0  0  0  0  0  0  0  0
    5.1848   -3.3707   -0.1404 C   0  0  0  0  0  0  0  0  0  0  0  0
    2.0825    2.3182    0.0392 C   0  0  0  0  0  0  0  0  0  0  0  0
   -1.7898    0.4685    0.0476 C   0  0  0  0  0  0  0  0  0  0  0  0
    4.7104   -4.3203   -1.0338 C   0  0  0  0  0  0  0  0  0  0  0  0
    2.5524   -4.5989   -2.5512 C   0  0  0  0  0  0  0  0  0  0  0  0
    2.0973   -6.6267   -1.9633 C   0  0  0  0  0  0  0  0  0  0  0  0
    2.7347   -5.9187   -2.8913 C   0  0  0  0  0  0  0  0  0  0  0  0
    3.6118    2.4630    0.0764 C   0  0  0  0  0  0  0  0  0  0  0  0
    1.5784    2.9467   -1.2971 C   0  0  0  0  0  0  0  0  0  0  0  0
    1.5255    3.2565    1.1602 C   0  0  0  0  0  0  0  0  0  0  0  0
    4.5850   -1.5207    0.7396 H   0  0  0  0  0  0  0  0  0  0  0  0
   -0.1379   -3.5898    0.0925 H   0  0  0  0  0  0  0  0  0  0  0  0
   -1.8777   -3.2896    0.0043 H   0  0  0  0  0  0  0  0  0  0  0  0
    3.2428   -6.6154   -0.3512 H   0  0  0  0  0  0  0  0  0  0  0  0
    6.2499   -3.2232    0.0013 H   0  0  0  0  0  0  0  0  0  0  0  0
   -2.7226    1.0323   -0.0064 H   0  0  0  0  0  0  0  0  0  0  0  0
    5.3572   -5.0619   -1.4359 H   0  0  0  0  0  0  0  0  0  0  0  0
    1.4592   -4.3876   -2.3983 H   0  0  0  0  0  0  0  0  0  0  0  0
    1.1436   -7.1342   -2.2314 H   0  0  0  0  0  0  0  0  0  0  0  0
    3.8106   -6.1486   -2.9458 H   0  0  0  0  0  0  0  0  0  0  0  0
    4.0747    1.8907   -0.7328 H   0  0  0  0  0  0  0  0  0  0  0  0
    3.9296    3.5077   -0.0304 H   0  0  0  0  0  0  0  0  0  0  0  0
    3.9999    2.0958    1.0324 H   0  0  0  0  0  0  0  0  0  0  0  0
    0.4840    2.9947   -1.3513 H   0  0  0  0  0  0  0  0  0  0  0  0
    1.9216    3.9885   -1.4024 H   0  0  0  0  0  0  0  0  0  0  0  0
    1.9362    2.3958   -2.1702 H   0  0  0  0  0  0  0  0  0  0  0  0
    0.4322    3.3308    1.1571 H   0  0  0  0  0  0  0  0  0  0  0  0
    1.8490    2.9480    2.1572 H   0  0  0  0  0  0  0  0  0  0  0  0
    1.8854    4.2914    1.0187 H   0  0  0  0  0  0  0  0  0  0  0  0
  1  2  1  0  0  0  0
  1  3  1  0  0  0  0
  1  4  2  0  0  0  0
  2  5  2  0  0  0  0
  2  6  1  0  0  0  0
  3  7  1  0  0  0  0
  3  8  2  0  0  0  0
  4  9  1  0  0  0  0
  5 10  1  0  0  0  0
  5  9  1  0  0  0  0
  6 11  2  0  0  0  0
  6 12  1  0  0  0  0
  7 13  2  0  0  0  0
  7 14  1  0  0  0  0
  8 15  1  0  0  0  0
  8 25  1  0  0  0  0
  9 16  1  0  0  0  0
 10 17  2  0  0  0  0
 11 17  1  0  0  0  0
 12 26  1  0  0  0  0
 12 27  1  0  0  0  0
 13 18  1  0  0  0  0
 13 19  1  0  0  0  0
 14 20  2  0  0  0  0
 14 28  1  0  0  0  0
 15 18  2  0  0  0  0
 15 29  1  0  0  0  0
 16 22  1  0  0  0  0
 16 23  1  0  0  0  0
 16 24  1  0  0  0  0
 17 30  1  0  0  0  0
 18 31  1  0  0  0  0
 19 21  2  0  0  0  0
 19 32  1  0  0  0  0
 20 21  1  0  0  0  0
 20 33  1  0  0  0  0
 21 34  1  0  0  0  0
 22 35  1  0  0  0  0
 22 36  1  0  0  0  0
 22 37  1  0  0  0  0
 23 38  1  0  0  0  0
 23 39  1  0  0  0  0
 23 40  1  0  0  0  0
 24 41  1  0  0  0  0
 24 42  1  0  0  0  0
 24 43  1  0  0  0  0
M  END
>  <Mol_ID>
4914

>  <Formula>
C19H19N5

>  <MolWeight>
317.38766

>  <Cat>
S2642

>  <Name>
1-Naphthyl PP1(1-NA-PP1)

>  <Synonyms>
N/A

>  <Target>
Bcr-Abl,CaMK,CDK,PKD,Src

>  <Form>
Free Base

>  <CAS>
221243-82-9

>  <URL>
http://www.selleckchem.com/products/1-na-pp1.html

$$$$
