1-NM-PP1
 OpenBabel08302521313D

 46 49  0  0  0  0  0  0  0  0999 V2000
    1.2603    1.1314    0.3119 N   0  0  0  0  0  0  0  0  0  0  0  0
    2.0355    0.0793    0.6683 N   0  0  0  0  0  0  0  0  0  0  0  0
   -1.0877    1.5675   -0.2045 N   0  0  0  0  0  0  0  0  0  0  0  0
   -2.3959   -0.4632   -0.3052 N   0  0  0  0  0  0  0  0  0  0  0  0
   -1.5288   -2.6056   -0.0598 N   0  0  0  0  0  0  0  0  0  0  0  0
    1.9006    2.4448    0.1089 C   0  0  0  0  0  0  0  0  0  0  0  0
   -0.0529    0.7697    0.1117 C   0  0  0  0  0  0  0  0  0  0  0  0
    1.2011   -0.9685    0.6759 C   0  0  0  0  0  0  0  0  0  0  0  0
   -0.1075   -0.6073    0.2680 C   0  0  0  0  0  0  0  0  0  0  0  0
    2.2786    2.6190   -1.3751 C   0  0  0  0  0  0  0  0  0  0  0  0
    0.9881    3.6083    0.5370 C   0  0  0  0  0  0  0  0  0  0  0  0
    3.1962    2.5537    0.9503 C   0  0  0  0  0  0  0  0  0  0  0  0
    1.7471   -2.3138    0.9475 C   0  0  0  0  0  0  0  0  0  0  0  0
    1.5793   -2.7216    2.4178 C   0  0  0  0  0  0  0  0  0  0  0  0
   -1.3282   -1.2347   -0.0182 C   0  0  0  0  0  0  0  0  0  0  0  0
    0.3504   -2.6570    3.1180 C   0  0  0  0  0  0  0  0  0  0  0  0
   -0.2426   -3.8640    3.4715 C   0  0  0  0  0  0  0  0  0  0  0  0
    2.4273   -3.7806    2.7568 C   0  0  0  0  0  0  0  0  0  0  0  0
   -2.2253    0.8707   -0.3567 C   0  0  0  0  0  0  0  0  0  0  0  0
   -0.0943   -1.5590    3.8914 C   0  0  0  0  0  0  0  0  0  0  0  0
    0.5898   -4.9449    3.7523 C   0  0  0  0  0  0  0  0  0  0  0  0
    1.9575   -4.8566    3.5036 C   0  0  0  0  0  0  0  0  0  0  0  0
   -1.5514   -3.8867    3.9266 C   0  0  0  0  0  0  0  0  0  0  0  0
   -1.1076   -1.7310    4.8459 C   0  0  0  0  0  0  0  0  0  0  0  0
   -1.8521   -2.9012    4.8547 C   0  0  0  0  0  0  0  0  0  0  0  0
   -0.9285   -3.1779    0.5148 H   0  0  0  0  0  0  0  0  0  0  0  0
   -2.5153   -2.8357   -0.0559 H   0  0  0  0  0  0  0  0  0  0  0  0
    1.3921    2.6328   -2.0185 H   0  0  0  0  0  0  0  0  0  0  0  0
    2.8182    3.5613   -1.5358 H   0  0  0  0  0  0  0  0  0  0  0  0
    2.9250    1.8056   -1.7248 H   0  0  0  0  0  0  0  0  0  0  0  0
    0.6092    3.4596    1.5539 H   0  0  0  0  0  0  0  0  0  0  0  0
    1.5284    4.5615    0.5143 H   0  0  0  0  0  0  0  0  0  0  0  0
    0.1305    3.7257   -0.1326 H   0  0  0  0  0  0  0  0  0  0  0  0
    2.9881    2.4085    2.0169 H   0  0  0  0  0  0  0  0  0  0  0  0
    3.9428    1.8069    0.6516 H   0  0  0  0  0  0  0  0  0  0  0  0
    3.6675    3.5355    0.8327 H   0  0  0  0  0  0  0  0  0  0  0  0
    1.2502   -3.0682    0.3223 H   0  0  0  0  0  0  0  0  0  0  0  0
    2.8093   -2.3427    0.6677 H   0  0  0  0  0  0  0  0  0  0  0  0
    3.4432   -3.8167    2.3556 H   0  0  0  0  0  0  0  0  0  0  0  0
   -3.1210    1.4542   -0.5482 H   0  0  0  0  0  0  0  0  0  0  0  0
    0.4700   -0.6275    3.9002 H   0  0  0  0  0  0  0  0  0  0  0  0
    0.1943   -5.8094    4.2792 H   0  0  0  0  0  0  0  0  0  0  0  0
    2.6214   -5.6573    3.8139 H   0  0  0  0  0  0  0  0  0  0  0  0
   -2.3140   -3.8908    3.1243 H   0  0  0  0  0  0  0  0  0  0  0  0
   -1.3214   -0.9774    5.6013 H   0  0  0  0  0  0  0  0  0  0  0  0
   -2.6899   -3.0631    5.5283 H   0  0  0  0  0  0  0  0  0  0  0  0
  1  2  1  0  0  0  0
  1  6  1  0  0  0  0
  1  7  1  0  0  0  0
  2  8  2  0  0  0  0
  3  7  2  0  0  0  0
  3 19  1  0  0  0  0
  4 15  1  0  0  0  0
  4 19  2  0  0  0  0
  5 15  1  0  0  0  0
  5 26  1  0  0  0  0
  5 27  1  0  0  0  0
  6 10  1  0  0  0  0
  6 11  1  0  0  0  0
  6 12  1  0  0  0  0
  7  9  1  0  0  0  0
  8  9  1  0  0  0  0
  8 13  1  0  0  0  0
  9 15  2  0  0  0  0
 10 28  1  0  0  0  0
 10 29  1  0  0  0  0
 10 30  1  0  0  0  0
 11 31  1  0  0  0  0
 11 32  1  0  0  0  0
 11 33  1  0  0  0  0
 12 34  1  0  0  0  0
 12 35  1  0  0  0  0
 12 36  1  0  0  0  0
 13 14  1  0  0  0  0
 13 37  1  0  0  0  0
 13 38  1  0  0  0  0
 14 16  1  0  0  0  0
 14 18  2  0  0  0  0
 16 17  2  0  0  0  0
 16 20  1  0  0  0  0
 17 21  1  0  0  0  0
 17 23  1  0  0  0  0
 18 22  1  0  0  0  0
 18 39  1  0  0  0  0
 19 40  1  0  0  0  0
 20 24  2  0  0  0  0
 20 41  1  0  0  0  0
 21 22  2  0  0  0  0
 21 42  1  0  0  0  0
 22 43  1  0  0  0  0
 23 25  2  0  0  0  0
 23 44  1  0  0  0  0
 24 25  1  0  0  0  0
 24 45  1  0  0  0  0
 25 46  1  0  0  0  0
M  END
>  <Mol_ID>
5894

>  <Formula>
C20H21N5

>  <MolWeight>
331.41424

>  <Cat>
S6383

>  <Name>
1-NM-PP1

>  <Synonyms>
PP1 Analog II, 1NM-PP1

>  <Target>
Bcr-Abl,CaMK,CDK,Src

>  <Form>
Free Base

>  <CAS>
221244-14-0

>  <URL>
http://www.selleckchem.com/products/1-nm-pp1.html

$$$$
