1-Octanol
 OpenBabel08302521363D

 27 26  0  0  0  0  0  0  0  0999 V2000
    1.1753    0.0166    0.0354 C   0  0  0  0  0  0  0  0  0  0  0  0
    0.6438   -0.4590    1.3923 C   0  0  0  0  0  0  0  0  0  0  0  0
    0.6718    1.4279   -0.2904 C   0  0  0  0  0  0  0  0  0  0  0  0
    1.0570   -1.8909    1.7568 C   0  0  0  0  0  0  0  0  0  0  0  0
    1.2043    1.9858   -1.6118 C   0  0  0  0  0  0  0  0  0  0  0  0
    2.5627   -2.1454    1.8650 C   0  0  0  0  0  0  0  0  0  0  0  0
    0.7832    1.1859   -2.8375 C   0  0  0  0  0  0  0  0  0  0  0  0
    3.2474   -1.3386    2.9571 C   0  0  0  0  0  0  0  0  0  0  0  0
    1.2835    1.8073   -4.0156 O   0  0  0  0  0  0  0  0  0  0  0  0
    0.8509   -0.6880   -0.7373 H   0  0  0  0  0  0  0  0  0  0  0  0
    2.2709    0.0219    0.0380 H   0  0  0  0  0  0  0  0  0  0  0  0
    0.9576    0.2349    2.1804 H   0  0  0  0  0  0  0  0  0  0  0  0
   -0.4533   -0.4228    1.3713 H   0  0  0  0  0  0  0  0  0  0  0  0
   -0.4259    1.4326   -0.3113 H   0  0  0  0  0  0  0  0  0  0  0  0
    0.9735    2.1088    0.5149 H   0  0  0  0  0  0  0  0  0  0  0  0
    0.5832   -2.1552    2.7105 H   0  0  0  0  0  0  0  0  0  0  0  0
    0.6441   -2.5767    1.0079 H   0  0  0  0  0  0  0  0  0  0  0  0
    0.8509    3.0204   -1.7251 H   0  0  0  0  0  0  0  0  0  0  0  0
    2.2990    2.0566   -1.5780 H   0  0  0  0  0  0  0  0  0  0  0  0
    2.7172   -3.2109    2.0790 H   0  0  0  0  0  0  0  0  0  0  0  0
    3.0505   -1.9519    0.9054 H   0  0  0  0  0  0  0  0  0  0  0  0
    1.1906    0.1727   -2.8092 H   0  0  0  0  0  0  0  0  0  0  0  0
   -0.3060    1.1186   -2.9158 H   0  0  0  0  0  0  0  0  0  0  0  0
    2.8722   -1.6219    3.9467 H   0  0  0  0  0  0  0  0  0  0  0  0
    4.3254   -1.5274    2.9405 H   0  0  0  0  0  0  0  0  0  0  0  0
    3.0995   -0.2628    2.8247 H   0  0  0  0  0  0  0  0  0  0  0  0
    0.8637    2.6830   -4.0854 H   0  0  0  0  0  0  0  0  0  0  0  0
  1  2  1  0  0  0  0
  1  3  1  0  0  0  0
  1 10  1  0  0  0  0
  1 11  1  0  0  0  0
  2  4  1  0  0  0  0
  2 12  1  0  0  0  0
  2 13  1  0  0  0  0
  3  5  1  0  0  0  0
  3 14  1  0  0  0  0
  3 15  1  0  0  0  0
  4  6  1  0  0  0  0
  4 16  1  0  0  0  0
  4 17  1  0  0  0  0
  5  7  1  0  0  0  0
  5 18  1  0  0  0  0
  5 19  1  0  0  0  0
  6  8  1  0  0  0  0
  6 20  1  0  0  0  0
  6 21  1  0  0  0  0
  7  9  1  0  0  0  0
  7 22  1  0  0  0  0
  7 23  1  0  0  0  0
  8 24  1  0  0  0  0
  8 25  1  0  0  0  0
  8 26  1  0  0  0  0
  9 27  1  0  0  0  0
M  END
>  <Mol_ID>
7227

>  <Formula>
C8H18O

>  <MolWeight>
130.22792

>  <Cat>
E4234

>  <Name>
1-Octanol

>  <Synonyms>
1-Octanol

>  <Target>
calcium channel; Endogenous Metabolite

>  <Form>
free base

>  <CAS>
111-87-5

>  <URL>
https://www.selleckchem.com/products/1-octanol.html

$$$$
