1-Phenylbiguanide
 OpenBabel08302521233D

 24 24  0  0  0  0  0  0  0  0999 V2000
    1.1394    0.1388   -0.0379 C   0  0  0  0  0  0  0  0  0  0  0  0
    0.2793   -0.3961   -0.9568 N   0  0  0  0  0  0  0  0  0  0  0  0
    2.2785   -0.6033    0.1001 N   0  0  0  0  0  0  0  0  0  0  0  0
    0.9563    1.2457    0.6131 N   0  0  0  0  0  0  0  0  0  0  0  0
   -1.1001   -0.1535   -1.0787 C   0  0  0  0  0  0  0  0  0  0  0  0
   -1.6846   -0.0846   -2.3506 C   0  0  0  0  0  0  0  0  0  0  0  0
   -3.0502    0.1797   -2.4985 C   0  0  0  0  0  0  0  0  0  0  0  0
   -3.8486    0.3731   -1.3744 C   0  0  0  0  0  0  0  0  0  0  0  0
   -3.2835    0.3037   -0.1039 C   0  0  0  0  0  0  0  0  0  0  0  0
   -1.9189    0.0468    0.0404 C   0  0  0  0  0  0  0  0  0  0  0  0
    3.4822   -0.3757    0.6810 C   0  0  0  0  0  0  0  0  0  0  0  0
    3.7463    0.9045    1.0134 N   0  0  0  0  0  0  0  0  0  0  0  0
    4.3288   -1.3319    0.8570 N   0  0  0  0  0  0  0  0  0  0  0  0
    0.7201   -0.7413   -1.8005 H   0  0  0  0  0  0  0  0  0  0  0  0
    2.1757   -1.5822   -0.1250 H   0  0  0  0  0  0  0  0  0  0  0  0
    0.0640    1.6476    0.3057 H   0  0  0  0  0  0  0  0  0  0  0  0
   -1.0823   -0.2226   -3.2454 H   0  0  0  0  0  0  0  0  0  0  0  0
   -3.4882    0.2365   -3.4917 H   0  0  0  0  0  0  0  0  0  0  0  0
   -4.9108    0.5758   -1.4876 H   0  0  0  0  0  0  0  0  0  0  0  0
   -3.9041    0.4454    0.7773 H   0  0  0  0  0  0  0  0  0  0  0  0
   -1.5016   -0.0210    1.0444 H   0  0  0  0  0  0  0  0  0  0  0  0
    4.4162    1.0592    1.7518 H   0  0  0  0  0  0  0  0  0  0  0  0
    2.8835    1.4434    1.1460 H   0  0  0  0  0  0  0  0  0  0  0  0
    5.1802   -0.9363    1.2617 H   0  0  0  0  0  0  0  0  0  0  0  0
  1  2  1  0  0  0  0
  1  3  1  0  0  0  0
  1  4  2  0  0  0  0
  2  5  1  0  0  0  0
  2 14  1  0  0  0  0
  3 11  1  0  0  0  0
  3 15  1  0  0  0  0
  4 16  1  0  0  0  0
  5  6  2  0  0  0  0
  5 10  1  0  0  0  0
  6  7  1  0  0  0  0
  6 17  1  0  0  0  0
  7  8  2  0  0  0  0
  7 18  1  0  0  0  0
  8  9  1  0  0  0  0
  8 19  1  0  0  0  0
  9 10  2  0  0  0  0
  9 20  1  0  0  0  0
 10 21  1  0  0  0  0
 11 12  1  0  0  0  0
 11 13  2  0  0  0  0
 12 22  1  0  0  0  0
 12 23  1  0  0  0  0
 13 24  1  0  0  0  0
M  END
>  <Mol_ID>
4894

>  <Formula>
C8H11N5

>  <MolWeight>
177.20644

>  <Cat>
S2578

>  <Name>
1-Phenylbiguanide

>  <Synonyms>
Phenylbiguanide, PBG, N-Phenylbiguanide

>  <Target>
5-HT Receptor

>  <Form>
Free Base

>  <CAS>
102-02-3

>  <URL>
http://www.selleckchem.com/products/1-phenylbiguanide.html

$$$$
