1-Phenylethane-1,2-diol
 OpenBabel08302521373D

 20 20  0  0  0  0  0  0  0  0999 V2000
    1.0568    0.0159    0.1019 C   0  0  3  0  0  0  0  0  0  0  0  0
    0.3054    1.3597    0.1167 C   0  0  0  0  0  0  0  0  0  0  0  0
    0.8889   -0.5509   -1.2079 O   0  0  0  0  0  0  0  0  0  0  0  0
    0.8353    2.2040   -0.9168 O   0  0  0  0  0  0  0  0  0  0  0  0
    0.6650   -0.9872    1.1704 C   0  0  0  0  0  0  0  0  0  0  0  0
    0.7588   -2.3660    0.9114 C   0  0  0  0  0  0  0  0  0  0  0  0
    0.3100   -0.5902    2.4706 C   0  0  0  0  0  0  0  0  0  0  0  0
    0.5002   -3.3121    1.9062 C   0  0  0  0  0  0  0  0  0  0  0  0
    0.0493   -1.5373    3.4671 C   0  0  0  0  0  0  0  0  0  0  0  0
    0.1483   -2.8966    3.1863 C   0  0  0  0  0  0  0  0  0  0  0  0
    2.1310    0.2105    0.2067 H   0  0  0  0  0  0  0  0  0  0  0  0
   -0.7566    1.2133   -0.1057 H   0  0  0  0  0  0  0  0  0  0  0  0
    0.3964    1.8939    1.0659 H   0  0  0  0  0  0  0  0  0  0  0  0
    0.8805    0.2087   -1.8227 H   0  0  0  0  0  0  0  0  0  0  0  0
    1.7158    2.5000   -0.6235 H   0  0  0  0  0  0  0  0  0  0  0  0
    1.0470   -2.7152   -0.0795 H   0  0  0  0  0  0  0  0  0  0  0  0
    0.2441    0.4590    2.7432 H   0  0  0  0  0  0  0  0  0  0  0  0
    0.5842   -4.3715    1.6792 H   0  0  0  0  0  0  0  0  0  0  0  0
   -0.2195   -1.2110    4.4688 H   0  0  0  0  0  0  0  0  0  0  0  0
   -0.0403   -3.6313    3.9642 H   0  0  0  0  0  0  0  0  0  0  0  0
  1  2  1  0  0  0  0
  1  3  1  0  0  0  0
  1  5  1  0  0  0  0
  1 11  1  0  0  0  0
  2  4  1  0  0  0  0
  2 12  1  0  0  0  0
  2 13  1  0  0  0  0
  3 14  1  0  0  0  0
  4 15  1  0  0  0  0
  5  6  2  0  0  0  0
  5  7  1  0  0  0  0
  6  8  1  0  0  0  0
  6 16  1  0  0  0  0
  7  9  2  0  0  0  0
  7 17  1  0  0  0  0
  8 10  2  0  0  0  0
  8 18  1  0  0  0  0
  9 10  1  0  0  0  0
  9 19  1  0  0  0  0
 10 20  1  0  0  0  0
M  END
>  <Mol_ID>
7363

>  <Formula>
C8H10O2

>  <MolWeight>
138.1638

>  <Cat>
E4412

>  <Name>
1-Phenylethane-1,2-diol

>  <Synonyms>
Styrene Glycol

>  <Target>
Others

>  <Form>
Free base

>  <CAS>
93-56-1

>  <URL>
https://www.selleckchem.com/products/1-phenylethane-1-2-diol.html

$$$$
