1.cdx
 OpenBabel08302520403D

 51 55  0  0  0  0  0  0  0  0999 V2000
   -0.6087   -1.2217    0.0333 N   0  0  0  0  0  0  0  0  0  0  0  0
   -1.3354   -0.1138   -0.0115 C   0  0  0  0  0  0  0  0  0  0  0  0
   -0.7896    1.0910   -0.0252 N   0  0  0  0  0  0  0  0  0  0  0  0
    0.5326    1.1386    0.0971 C   0  0  0  0  0  0  0  0  0  0  0  0
    1.3175    0.0709    0.1658 N   0  0  0  0  0  0  0  0  0  0  0  0
    0.7116   -1.1049    0.0892 C   0  0  0  0  0  0  0  0  0  0  0  0
   -2.6984   -0.2130   -0.0690 N   0  0  0  0  0  0  0  0  0  0  0  0
    1.4772   -2.2327   -0.0062 N   0  0  0  0  0  0  0  0  0  0  0  0
    1.1394    2.4261    0.1207 N   0  0  0  0  0  0  0  0  0  0  0  0
    2.3821    2.7344    0.6626 C   0  0  0  0  0  0  0  0  0  0  0  0
    2.5171    4.1039    0.4602 C   0  0  0  0  0  0  0  0  0  0  0  0
    1.4308    4.6210   -0.1859 N   0  0  0  0  0  0  0  0  0  0  0  0
    0.6041    3.6047   -0.3814 C   0  0  0  0  0  0  0  0  0  0  0  0
    3.3542    1.9850    1.3444 C   0  0  0  0  0  0  0  0  0  0  0  0
    4.4937    2.6586    1.7993 C   0  0  0  0  0  0  0  0  0  0  0  0
    4.6515    4.0267    1.5869 C   0  0  0  0  0  0  0  0  0  0  0  0
    3.6657    4.7648    0.9191 C   0  0  0  0  0  0  0  0  0  0  0  0
    2.9345   -2.1731    0.0256 C   0  0  0  0  0  0  0  0  0  0  0  0
    3.4849   -3.1952   -0.9818 C   0  0  0  0  0  0  0  0  0  0  0  0
    2.9858   -4.5176   -0.7121 O   0  0  0  0  0  0  0  0  0  0  0  0
    1.5492   -4.5418   -0.7940 C   0  0  0  0  0  0  0  0  0  0  0  0
    0.9042   -3.5607    0.2015 C   0  0  0  0  0  0  0  0  0  0  0  0
   -3.5656    0.9640   -0.0585 C   0  0  0  0  0  0  0  0  0  0  0  0
   -4.5612    0.8730    1.1082 C   0  0  0  0  0  0  0  0  0  0  0  0
   -5.2782   -0.3729    1.0986 O   0  0  0  0  0  0  0  0  0  0  0  0
   -4.3626   -1.4763    1.2058 C   0  0  0  0  0  0  0  0  0  0  0  0
   -3.3731   -1.5042    0.0318 C   0  0  0  0  0  0  0  0  0  0  0  0
   -0.7002    3.6660   -1.1072 C   0  0  0  0  0  0  0  0  0  0  0  0
   -1.7319    3.8753   -0.2435 F   0  0  0  0  0  0  0  0  0  0  0  0
   -0.7355    4.7118   -1.9833 F   0  0  0  0  0  0  0  0  0  0  0  0
    3.2322    0.9258    1.5427 H   0  0  0  0  0  0  0  0  0  0  0  0
    5.2640    2.1059    2.3321 H   0  0  0  0  0  0  0  0  0  0  0  0
    5.5417    4.5323    1.9509 H   0  0  0  0  0  0  0  0  0  0  0  0
    3.7775    5.8326    0.7644 H   0  0  0  0  0  0  0  0  0  0  0  0
    3.2768   -2.4251    1.0366 H   0  0  0  0  0  0  0  0  0  0  0  0
    3.3356   -1.1864   -0.2317 H   0  0  0  0  0  0  0  0  0  0  0  0
    3.2143   -2.9150   -2.0075 H   0  0  0  0  0  0  0  0  0  0  0  0
    4.5769   -3.2298   -0.9210 H   0  0  0  0  0  0  0  0  0  0  0  0
    1.2216   -5.5631   -0.5753 H   0  0  0  0  0  0  0  0  0  0  0  0
    1.2480   -4.3057   -1.8215 H   0  0  0  0  0  0  0  0  0  0  0  0
    1.1279   -3.8804    1.2270 H   0  0  0  0  0  0  0  0  0  0  0  0
   -0.1820   -3.5966    0.0711 H   0  0  0  0  0  0  0  0  0  0  0  0
   -4.1186    0.9831   -1.0051 H   0  0  0  0  0  0  0  0  0  0  0  0
   -3.0270    1.9104    0.0186 H   0  0  0  0  0  0  0  0  0  0  0  0
   -4.0477    0.9808    2.0717 H   0  0  0  0  0  0  0  0  0  0  0  0
   -5.2964    1.6802    1.0298 H   0  0  0  0  0  0  0  0  0  0  0  0
   -4.9538   -2.3974    1.2138 H   0  0  0  0  0  0  0  0  0  0  0  0
   -3.8348   -1.4084    2.1646 H   0  0  0  0  0  0  0  0  0  0  0  0
   -3.9197   -1.6728   -0.9032 H   0  0  0  0  0  0  0  0  0  0  0  0
   -2.6918   -2.3505    0.1658 H   0  0  0  0  0  0  0  0  0  0  0  0
   -0.9097    2.7748   -1.7011 H   0  0  0  0  0  0  0  0  0  0  0  0
  1  2  2  0  0  0  0
  2  3  1  0  0  0  0
  2  7  1  0  0  0  0
  3  4  2  0  0  0  0
  4  5  1  0  0  0  0
  4  9  1  0  0  0  0
  5  6  2  0  0  0  0
  6  1  1  0  0  0  0
  6  8  1  0  0  0  0
  7 23  1  0  0  0  0
  8 18  1  0  0  0  0
  9 10  1  0  0  0  0
 10 11  2  0  0  0  0
 10 14  1  0  0  0  0
 11 12  1  0  0  0  0
 12 13  2  0  0  0  0
 13  9  1  0  0  0  0
 13 28  1  0  0  0  0
 14 15  2  0  0  0  0
 14 31  1  0  0  0  0
 15 16  1  0  0  0  0
 15 32  1  0  0  0  0
 16 17  2  0  0  0  0
 16 33  1  0  0  0  0
 17 11  1  0  0  0  0
 17 34  1  0  0  0  0
 18 19  1  0  0  0  0
 18 35  1  0  0  0  0
 18 36  1  0  0  0  0
 19 20  1  0  0  0  0
 19 37  1  0  0  0  0
 19 38  1  0  0  0  0
 20 21  1  0  0  0  0
 21 22  1  0  0  0  0
 21 39  1  0  0  0  0
 21 40  1  0  0  0  0
 22  8  1  0  0  0  0
 22 41  1  0  0  0  0
 22 42  1  0  0  0  0
 23 24  1  0  0  0  0
 23 43  1  0  0  0  0
 23 44  1  0  0  0  0
 24 25  1  0  0  0  0
 24 45  1  0  0  0  0
 24 46  1  0  0  0  0
 25 26  1  0  0  0  0
 26 27  1  0  0  0  0
 26 47  1  0  0  0  0
 26 48  1  0  0  0  0
 27  7  1  0  0  0  0
 27 49  1  0  0  0  0
 27 50  1  0  0  0  0
 28 29  1  0  0  0  0
 28 30  1  0  0  0  0
 28 51  1  0  0  0  0
M  END
>  <Mol_ID>
43

>  <Formula>
C19H21F2N7O2

>  <MolWeight>
417.4125464

>  <Cat>
S1072

>  <Name>
ZSTK474

>  <Synonyms>
N/A

>  <Target>
PI3K

>  <Form>
free base

>  <CAS>
475110-96-4

>  <URL>
http://selleckchem.com/products/ZSTK474.html

$$$$
