10-Undecenoic acid
 OpenBabel08302521223D

 33 32  0  0  0  0  0  0  0  0999 V2000
    1.1121   -0.0160   -0.0509 C   0  0  0  0  0  0  0  0  0  0  0  0
    0.5842   -1.4521    0.0482 C   0  0  0  0  0  0  0  0  0  0  0  0
    0.6276    0.6670   -1.3361 C   0  0  0  0  0  0  0  0  0  0  0  0
    1.0781   -2.2190    1.2817 C   0  0  0  0  0  0  0  0  0  0  0  0
    1.0634    2.1303   -1.4667 C   0  0  0  0  0  0  0  0  0  0  0  0
    0.6233   -1.6150    2.6141 C   0  0  0  0  0  0  0  0  0  0  0  0
    2.5776    2.3255   -1.5421 C   0  0  0  0  0  0  0  0  0  0  0  0
    1.0854   -2.4625    3.8041 C   0  0  0  0  0  0  0  0  0  0  0  0
    2.9461    3.7813   -1.7306 C   0  0  0  0  0  0  0  0  0  0  0  0
    0.6462   -1.8587    5.1072 C   0  0  0  0  0  0  0  0  0  0  0  0
    4.2872    3.9643   -1.7938 O   0  0  0  0  0  0  0  0  0  0  0  0
    2.1576    4.7071   -1.8159 O   0  0  0  0  0  0  0  0  0  0  0  0
   -0.1251   -2.4835    6.0085 C   0  0  0  0  0  0  0  0  0  0  0  0
    2.2068   -0.0383   -0.0256 H   0  0  0  0  0  0  0  0  0  0  0  0
    0.7738    0.5711    0.8095 H   0  0  0  0  0  0  0  0  0  0  0  0
   -0.5122   -1.4455    0.0380 H   0  0  0  0  0  0  0  0  0  0  0  0
    0.9033   -2.0072   -0.8435 H   0  0  0  0  0  0  0  0  0  0  0  0
    0.9753    0.1033   -2.2105 H   0  0  0  0  0  0  0  0  0  0  0  0
   -0.4692    0.6392   -1.3598 H   0  0  0  0  0  0  0  0  0  0  0  0
    0.7008   -3.2481    1.2133 H   0  0  0  0  0  0  0  0  0  0  0  0
    2.1721   -2.2840    1.2589 H   0  0  0  0  0  0  0  0  0  0  0  0
    0.6055    2.5432   -2.3755 H   0  0  0  0  0  0  0  0  0  0  0  0
    0.6563    2.7111   -0.6290 H   0  0  0  0  0  0  0  0  0  0  0  0
    1.0284   -0.6009    2.7199 H   0  0  0  0  0  0  0  0  0  0  0  0
   -0.4698   -1.5293    2.6234 H   0  0  0  0  0  0  0  0  0  0  0  0
    3.0503    1.9834   -0.6161 H   0  0  0  0  0  0  0  0  0  0  0  0
    2.9823    1.7578   -2.3869 H   0  0  0  0  0  0  0  0  0  0  0  0
    0.7042   -3.4859    3.7031 H   0  0  0  0  0  0  0  0  0  0  0  0
    2.1812   -2.5294    3.8076 H   0  0  0  0  0  0  0  0  0  0  0  0
    0.9918   -0.8499    5.3252 H   0  0  0  0  0  0  0  0  0  0  0  0
    4.7997    3.1390   -1.7083 H   0  0  0  0  0  0  0  0  0  0  0  0
   -0.4049   -1.9910    6.9348 H   0  0  0  0  0  0  0  0  0  0  0  0
   -0.4907   -3.4927    5.8474 H   0  0  0  0  0  0  0  0  0  0  0  0
  1  2  1  0  0  0  0
  1  3  1  0  0  0  0
  1 14  1  0  0  0  0
  1 15  1  0  0  0  0
  2  4  1  0  0  0  0
  2 16  1  0  0  0  0
  2 17  1  0  0  0  0
  3  5  1  0  0  0  0
  3 18  1  0  0  0  0
  3 19  1  0  0  0  0
  4  6  1  0  0  0  0
  4 20  1  0  0  0  0
  4 21  1  0  0  0  0
  5  7  1  0  0  0  0
  5 22  1  0  0  0  0
  5 23  1  0  0  0  0
  6  8  1  0  0  0  0
  6 24  1  0  0  0  0
  6 25  1  0  0  0  0
  7  9  1  0  0  0  0
  7 26  1  0  0  0  0
  7 27  1  0  0  0  0
  8 10  1  0  0  0  0
  8 28  1  0  0  0  0
  8 29  1  0  0  0  0
  9 11  1  0  0  0  0
  9 12  2  0  0  0  0
 10 13  2  0  0  0  0
 10 30  1  0  0  0  0
 11 31  1  0  0  0  0
 13 32  1  0  0  0  0
 13 33  1  0  0  0  0
M  END
>  <Mol_ID>
4616

>  <Formula>
C11H20O2

>  <MolWeight>
184.2753

>  <Cat>
S9452

>  <Name>
10-Undecenoic acid

>  <Synonyms>
N/A

>  <Target>
Others

>  <Form>
Free Base

>  <CAS>
112-38-9

>  <URL>
http://www.selleckchem.com/products/10-undecenoic-acid.html

$$$$
