11-Mercaptoundecanoic acid
 OpenBabel08302521343D

 36 35  0  0  0  0  0  0  0  0999 V2000
    1.1337    1.5755    3.0736 C   0  0  0  0  0  0  0  0  0  0  0  0
    0.3610    1.9507    1.8227 C   0  0  0  0  0  0  0  0  0  0  0  0
   -0.5967    0.8331    1.3953 C   0  0  0  0  0  0  0  0  0  0  0  0
   -1.3935    1.1899    0.1333 C   0  0  0  0  0  0  0  0  0  0  0  0
   -2.3433    0.0534   -0.2816 C   0  0  0  0  0  0  0  0  0  0  0  0
   -3.1440    0.4024   -1.5460 C   0  0  0  0  0  0  0  0  0  0  0  0
   -4.0947   -0.7320   -1.9632 C   0  0  0  0  0  0  0  0  0  0  0  0
   -4.8923   -0.3854   -3.2304 C   0  0  0  0  0  0  0  0  0  0  0  0
   -5.8448   -1.5182   -3.6475 C   0  0  0  0  0  0  0  0  0  0  0  0
   -6.6320   -1.1617   -4.9181 C   0  0  0  0  0  0  0  0  0  0  0  0
   -7.5798   -2.2865   -5.3431 C   0  0  0  0  0  0  0  0  0  0  0  0
    1.0360    0.5166    3.6685 O   0  0  0  0  0  0  0  0  0  0  0  0
    1.9708    2.5568    3.4798 O   0  0  0  0  0  0  0  0  0  0  0  0
   -8.4972   -1.8268   -6.8465 S   0  0  0  0  0  0  0  0  0  0  0  0
   -0.2016    2.8670    2.0306 H   0  0  0  0  0  0  0  0  0  0  0  0
    1.0844    2.1457    1.0231 H   0  0  0  0  0  0  0  0  0  0  0  0
   -0.0222   -0.0850    1.2184 H   0  0  0  0  0  0  0  0  0  0  0  0
   -1.2898    0.6156    2.2168 H   0  0  0  0  0  0  0  0  0  0  0  0
   -1.9735    2.1033    0.3149 H   0  0  0  0  0  0  0  0  0  0  0  0
   -0.6988    1.4032   -0.6870 H   0  0  0  0  0  0  0  0  0  0  0  0
   -1.7614   -0.8593   -0.4591 H   0  0  0  0  0  0  0  0  0  0  0  0
   -3.0364   -0.1608    0.5414 H   0  0  0  0  0  0  0  0  0  0  0  0
   -3.7242    1.3157   -1.3665 H   0  0  0  0  0  0  0  0  0  0  0  0
   -2.4504    0.6163   -2.3678 H   0  0  0  0  0  0  0  0  0  0  0  0
   -3.5144   -1.6470   -2.1378 H   0  0  0  0  0  0  0  0  0  0  0  0
   -4.7905   -0.9429   -1.1420 H   0  0  0  0  0  0  0  0  0  0  0  0
   -5.4707    0.5302   -3.0571 H   0  0  0  0  0  0  0  0  0  0  0  0
   -4.1965   -0.1758   -4.0521 H   0  0  0  0  0  0  0  0  0  0  0  0
   -5.2682   -2.4349   -3.8207 H   0  0  0  0  0  0  0  0  0  0  0  0
   -6.5456   -1.7265   -2.8299 H   0  0  0  0  0  0  0  0  0  0  0  0
   -7.2047   -0.2440   -4.7375 H   0  0  0  0  0  0  0  0  0  0  0  0
   -5.9245   -0.9532   -5.7296 H   0  0  0  0  0  0  0  0  0  0  0  0
   -7.0205   -3.2021   -5.5597 H   0  0  0  0  0  0  0  0  0  0  0  0
   -8.3038   -2.5097   -4.5531 H   0  0  0  0  0  0  0  0  0  0  0  0
    1.9571    3.3531    2.9195 H   0  0  0  0  0  0  0  0  0  0  0  0
   -9.1090   -0.7441   -6.3436 H   0  0  0  0  0  0  0  0  0  0  0  0
  1  2  1  0  0  0  0
  1 12  2  0  0  0  0
  1 13  1  0  0  0  0
  2  3  1  0  0  0  0
  2 15  1  0  0  0  0
  2 16  1  0  0  0  0
  3  4  1  0  0  0  0
  3 17  1  0  0  0  0
  3 18  1  0  0  0  0
  4  5  1  0  0  0  0
  4 19  1  0  0  0  0
  4 20  1  0  0  0  0
  5  6  1  0  0  0  0
  5 21  1  0  0  0  0
  5 22  1  0  0  0  0
  6  7  1  0  0  0  0
  6 23  1  0  0  0  0
  6 24  1  0  0  0  0
  7  8  1  0  0  0  0
  7 25  1  0  0  0  0
  7 26  1  0  0  0  0
  8  9  1  0  0  0  0
  8 27  1  0  0  0  0
  8 28  1  0  0  0  0
  9 10  1  0  0  0  0
  9 29  1  0  0  0  0
  9 30  1  0  0  0  0
 10 11  1  0  0  0  0
 10 31  1  0  0  0  0
 10 32  1  0  0  0  0
 11 14  1  0  0  0  0
 11 33  1  0  0  0  0
 11 34  1  0  0  0  0
 13 35  1  0  0  0  0
 14 36  1  0  0  0  0
M  END
>  <Mol_ID>
6497

>  <Formula>
C11H22O2S

>  <MolWeight>
218.35618

>  <Cat>
E2696

>  <Name>
11-Mercaptoundecanoic acid

>  <Synonyms>
MUA

>  <Target>
Others

>  <Form>
free base

>  <CAS>
71310-21-9

>  <URL>
http://www.selleckchem.com/products/11-mercaptoundecanoic-acid.html

$$$$
