12-O-Methylcarnosic acid
 OpenBabel08302521503D

 55 57  0  0  1  0  0  0  0  0999 V2000
    2.4151   -1.3561    1.1541 C   0  0  0  0  0  0  0  0  0  0  0  0
    2.1899   -2.6785    1.0348 O   0  0  0  0  0  0  0  0  0  0  0  0
    3.3667   -0.9635    1.7985 O   0  0  0  0  0  0  0  0  0  0  0  0
   -0.2014   -2.9455    0.4236 O   0  0  0  0  0  0  0  0  0  0  0  0
    4.2508    1.7355    0.6291 C   0  0  0  0  0  0  0  0  0  0  0  0
    2.5639    3.3085   -0.3374 C   0  0  0  0  0  0  0  0  0  0  0  0
   -2.7579   -2.6015   -0.6853 O   0  0  0  0  0  0  0  0  0  0  0  0
   -1.9396   -3.1899   -1.7110 C   0  0  0  0  0  0  0  0  0  0  0  0
   -4.3107   -0.2155    0.0695 C   0  0  0  0  0  0  0  0  0  0  0  0
   -5.1514   -1.2376    0.8321 C   0  0  0  0  0  0  0  0  0  0  0  0
   -4.6602   -0.1741   -1.4189 C   0  0  0  0  0  0  0  0  0  0  0  0
    1.4595   -0.4340    0.3467 C   0  0  1  0  0  0  0  0  0  0  0  0
   -0.0404   -0.6045    0.7631 C   0  0  0  0  0  0  0  0  0  0  0  0
    1.7361    1.1065    0.5000 C   0  0  1  0  0  0  0  0  0  0  0  0
    1.6327   -0.7574   -1.1667 C   0  0  0  0  0  0  0  0  0  0  0  0
   -0.7684    0.4882    1.2811 C   0  0  0  0  0  0  0  0  0  0  0  0
   -0.7818   -1.7056    0.3617 C   0  0  0  0  0  0  0  0  0  0  0  0
    1.4239    1.5097    1.9496 C   0  0  0  0  0  0  0  0  0  0  0  0
    2.9409    1.7997   -0.1793 C   0  0  0  0  0  0  0  0  0  0  0  0
    2.9693   -0.2684   -1.7298 C   0  0  0  0  0  0  0  0  0  0  0  0
   -2.1461    0.5732    1.0414 C   0  0  0  0  0  0  0  0  0  0  0  0
   -0.0950    1.6276    2.0215 C   0  0  0  0  0  0  0  0  0  0  0  0
   -2.1278   -1.5934    0.0020 C   0  0  0  0  0  0  0  0  0  0  0  0
    3.1276    1.2449   -1.6120 C   0  0  0  0  0  0  0  0  0  0  0  0
   -2.8338   -0.4331    0.3407 C   0  0  0  0  0  0  0  0  0  0  0  0
    1.3463   -2.8820    0.5766 H   0  0  0  0  0  0  0  0  0  0  0  0
   -0.9017   -3.5044    0.8319 H   0  0  0  0  0  0  0  0  0  0  0  0
    4.1865    1.1280    1.5184 H   0  0  0  0  0  0  0  0  0  0  0  0
    4.5376    2.7350    0.9893 H   0  0  0  0  0  0  0  0  0  0  0  0
    5.0930    1.3817    0.0300 H   0  0  0  0  0  0  0  0  0  0  0  0
    2.3994    3.7953    0.6294 H   0  0  0  0  0  0  0  0  0  0  0  0
    3.3461    3.8636   -0.8640 H   0  0  0  0  0  0  0  0  0  0  0  0
    1.6363    3.4270   -0.9124 H   0  0  0  0  0  0  0  0  0  0  0  0
   -1.1644   -2.5119   -2.0934 H   0  0  0  0  0  0  0  0  0  0  0  0
   -2.5772   -3.4644   -2.5542 H   0  0  0  0  0  0  0  0  0  0  0  0
   -1.4795   -4.1081   -1.3298 H   0  0  0  0  0  0  0  0  0  0  0  0
   -4.5840    0.7720    0.4678 H   0  0  0  0  0  0  0  0  0  0  0  0
   -4.8362   -1.2936    1.8807 H   0  0  0  0  0  0  0  0  0  0  0  0
   -5.0631   -2.2412    0.4047 H   0  0  0  0  0  0  0  0  0  0  0  0
   -6.2089   -0.9579    0.8130 H   0  0  0  0  0  0  0  0  0  0  0  0
   -3.9897    0.4974   -1.9671 H   0  0  0  0  0  0  0  0  0  0  0  0
   -5.6828    0.1973   -1.5546 H   0  0  0  0  0  0  0  0  0  0  0  0
   -4.6053   -1.1614   -1.8868 H   0  0  0  0  0  0  0  0  0  0  0  0
    0.9289    1.5495   -0.1113 H   0  0  0  0  0  0  0  0  0  0  0  0
    0.8222   -0.2874   -1.7422 H   0  0  0  0  0  0  0  0  0  0  0  0
    1.5486   -1.8327   -1.3647 H   0  0  0  0  0  0  0  0  0  0  0  0
    1.7649    0.7504    2.6642 H   0  0  0  0  0  0  0  0  0  0  0  0
    1.8928    2.4461    2.2601 H   0  0  0  0  0  0  0  0  0  0  0  0
    3.8035   -0.7815   -1.2435 H   0  0  0  0  0  0  0  0  0  0  0  0
    3.0133   -0.5352   -2.7950 H   0  0  0  0  0  0  0  0  0  0  0  0
   -2.6742    1.4747    1.3527 H   0  0  0  0  0  0  0  0  0  0  0  0
   -0.4256    1.6421    3.0655 H   0  0  0  0  0  0  0  0  0  0  0  0
   -0.3912    2.5776    1.5578 H   0  0  0  0  0  0  0  0  0  0  0  0
    4.0994    1.5458   -2.0175 H   0  0  0  0  0  0  0  0  0  0  0  0
    2.3771    1.7002   -2.2737 H   0  0  0  0  0  0  0  0  0  0  0  0
  1  2  1  0  0  0  0
  1  3  2  0  0  0  0
  2 26  1  0  0  0  0
  4 17  1  0  0  0  0
  4 27  1  0  0  0  0
  5 19  1  0  0  0  0
  5 28  1  0  0  0  0
  5 29  1  0  0  0  0
  5 30  1  0  0  0  0
  6 19  1  0  0  0  0
  6 31  1  0  0  0  0
  6 32  1  0  0  0  0
  6 33  1  0  0  0  0
  7  8  1  0  0  0  0
  7 23  1  0  0  0  0
  8 34  1  0  0  0  0
  8 35  1  0  0  0  0
  8 36  1  0  0  0  0
  9 10  1  0  0  0  0
  9 11  1  0  0  0  0
  9 25  1  0  0  0  0
  9 37  1  0  0  0  0
 10 38  1  0  0  0  0
 10 39  1  0  0  0  0
 10 40  1  0  0  0  0
 11 41  1  0  0  0  0
 11 42  1  0  0  0  0
 11 43  1  0  0  0  0
 12  1  1  1  0  0  0
 12 13  1  0  0  0  0
 12 14  1  0  0  0  0
 12 15  1  0  0  0  0
 13 16  2  0  0  0  0
 13 17  1  0  0  0  0
 14 18  1  0  0  0  0
 14 19  1  0  0  0  0
 14 44  1  6  0  0  0
 15 20  1  0  0  0  0
 15 45  1  0  0  0  0
 15 46  1  0  0  0  0
 16 21  1  0  0  0  0
 16 22  1  0  0  0  0
 17 23  2  0  0  0  0
 18 22  1  0  0  0  0
 18 47  1  0  0  0  0
 18 48  1  0  0  0  0
 19 24  1  0  0  0  0
 20 24  1  0  0  0  0
 20 49  1  0  0  0  0
 20 50  1  0  0  0  0
 21 25  2  0  0  0  0
 21 51  1  0  0  0  0
 22 52  1  0  0  0  0
 22 53  1  0  0  0  0
 23 25  1  0  0  0  0
 24 54  1  0  0  0  0
 24 55  1  0  0  0  0
M  END
>  <Mol_ID>
9861

>  <Formula>
C21H30O4

>  <MolWeight>
346.4605

>  <Cat>
E2578

>  <Name>
12-O-Methylcarnosic acid

>  <Synonyms>
12-Methoxycarnosic acid

>  <Target>
5-alpha Reductase

>  <Form>
free base

>  <CAS>
62201-71-2

>  <URL>
https://www.selleckchem.com/products/12-o-methylcarnosic-acid.html

$$$$
