16-Dehydroprogesterone
 OpenBabel08302520393D

 51 54  0  0  0  0  0  0  0  0999 V2000
    0.4663    1.4403   -0.5170 C   0  0  1  0  0  0  0  0  0  0  0  0
    0.2317    1.0115    0.9619 C   0  0  2  0  0  0  0  0  0  0  0  0
    1.9437    1.2295   -0.9542 C   0  0  2  0  0  0  0  0  0  0  0  0
   -0.5963    0.9002   -1.5240 C   0  0  0  0  0  0  0  0  0  0  0  0
   -1.2584    1.1092    1.1861 C   0  0  1  0  0  0  0  0  0  0  0  0
    1.0845    1.9040    1.8503 C   0  0  0  0  0  0  0  0  0  0  0  0
    2.9400    1.6730    0.1286 C   0  0  0  0  0  0  0  0  0  0  0  0
    2.1703    2.1534   -2.1870 C   0  0  0  0  0  0  0  0  0  0  0  0
    2.2155   -0.2560   -1.2906 C   0  0  0  0  0  0  0  0  0  0  0  0
   -1.5097   -0.2050   -1.0044 C   0  0  0  0  0  0  0  0  0  0  0  0
   -1.9855   -0.0393    0.4536 C   0  0  2  0  0  0  0  0  0  0  0  0
   -1.9157    1.1291    2.5693 C   0  0  0  0  0  0  0  0  0  0  0  0
    2.5589    1.5876    1.5945 C   0  0  0  0  0  0  0  0  0  0  0  0
    4.1749    2.0874   -0.2036 C   0  0  0  0  0  0  0  0  0  0  0  0
    3.5884    2.1227   -2.7222 C   0  0  0  0  0  0  0  0  0  0  0  0
   -3.3578    0.4753    0.8415 C   0  0  0  0  0  0  0  0  0  0  0  0
   -1.7659   -1.4421    1.1193 C   0  0  0  0  0  0  0  0  0  0  0  0
   -3.3489    0.8275    2.1479 C   0  0  0  0  0  0  0  0  0  0  0  0
    4.6251    2.1231   -1.6125 C   0  0  0  0  0  0  0  0  0  0  0  0
   -4.2613    1.1886   -0.1150 C   0  0  0  0  0  0  0  0  0  0  0  0
    5.8235    2.1412   -1.8695 O   0  0  0  0  0  0  0  0  0  0  0  0
   -5.1029    2.3400    0.3902 C   0  0  0  0  0  0  0  0  0  0  0  0
   -4.2349    0.9320   -1.3172 O   0  0  0  0  0  0  0  0  0  0  0  0
    0.3018    2.5319   -0.5343 H   0  0  0  0  0  0  0  0  0  0  0  0
    0.5595   -0.0212    1.1089 H   0  0  0  0  0  0  0  0  0  0  0  0
   -1.2316    1.7385   -1.8386 H   0  0  0  0  0  0  0  0  0  0  0  0
   -0.1261    0.5366   -2.4454 H   0  0  0  0  0  0  0  0  0  0  0  0
   -1.5526    2.0742    0.7255 H   0  0  0  0  0  0  0  0  0  0  0  0
    0.8799    2.9668    1.6675 H   0  0  0  0  0  0  0  0  0  0  0  0
    0.8609    1.7156    2.9115 H   0  0  0  0  0  0  0  0  0  0  0  0
    1.9509    3.1927   -1.8891 H   0  0  0  0  0  0  0  0  0  0  0  0
    1.4793    1.9264   -3.0002 H   0  0  0  0  0  0  0  0  0  0  0  0
    1.5168   -0.9276   -0.7805 H   0  0  0  0  0  0  0  0  0  0  0  0
    3.2198   -0.5783   -0.9913 H   0  0  0  0  0  0  0  0  0  0  0  0
    2.1220   -0.4504   -2.3642 H   0  0  0  0  0  0  0  0  0  0  0  0
   -0.9291   -1.1350   -1.0963 H   0  0  0  0  0  0  0  0  0  0  0  0
   -2.3455   -0.3662   -1.6922 H   0  0  0  0  0  0  0  0  0  0  0  0
   -1.5092    0.4068    3.2772 H   0  0  0  0  0  0  0  0  0  0  0  0
   -1.8655    2.1339    2.9992 H   0  0  0  0  0  0  0  0  0  0  0  0
    3.1713    2.2712    2.1932 H   0  0  0  0  0  0  0  0  0  0  0  0
    2.7691    0.5734    1.9408 H   0  0  0  0  0  0  0  0  0  0  0  0
    4.9345    2.3400    0.5280 H   0  0  0  0  0  0  0  0  0  0  0  0
    3.7592    3.0146   -3.3319 H   0  0  0  0  0  0  0  0  0  0  0  0
    3.7348    1.2368   -3.3461 H   0  0  0  0  0  0  0  0  0  0  0  0
   -0.7363   -1.7932    0.9949 H   0  0  0  0  0  0  0  0  0  0  0  0
   -2.4267   -2.1853    0.6639 H   0  0  0  0  0  0  0  0  0  0  0  0
   -1.9646   -1.4601    2.1971 H   0  0  0  0  0  0  0  0  0  0  0  0
   -4.1828    1.2181    2.7138 H   0  0  0  0  0  0  0  0  0  0  0  0
   -4.6064    2.8836    1.2000 H   0  0  0  0  0  0  0  0  0  0  0  0
   -6.0747    1.9702    0.7168 H   0  0  0  0  0  0  0  0  0  0  0  0
   -5.2350    3.0664   -0.4185 H   0  0  0  0  0  0  0  0  0  0  0  0
  1  2  1  0  0  0  0
  1  3  1  0  0  0  0
  1  4  1  0  0  0  0
  1 24  1  6  0  0  0
  2  5  1  0  0  0  0
  2  6  1  0  0  0  0
  2 25  1  1  0  0  0
  3  7  1  0  0  0  0
  3  8  1  0  0  0  0
  3  9  1  6  0  0  0
  4 10  1  0  0  0  0
  4 26  1  0  0  0  0
  4 27  1  0  0  0  0
  5 11  1  0  0  0  0
  5 12  1  0  0  0  0
  5 28  1  6  0  0  0
  6 13  1  0  0  0  0
  6 29  1  0  0  0  0
  6 30  1  0  0  0  0
  7 14  2  0  0  0  0
  7 13  1  0  0  0  0
  8 15  1  0  0  0  0
  8 31  1  0  0  0  0
  8 32  1  0  0  0  0
  9 33  1  0  0  0  0
  9 34  1  0  0  0  0
  9 35  1  0  0  0  0
 10 11  1  0  0  0  0
 10 36  1  0  0  0  0
 10 37  1  0  0  0  0
 11 16  1  0  0  0  0
 11 17  1  1  0  0  0
 12 18  1  0  0  0  0
 12 38  1  0  0  0  0
 12 39  1  0  0  0  0
 13 40  1  0  0  0  0
 13 41  1  0  0  0  0
 14 19  1  0  0  0  0
 14 42  1  0  0  0  0
 15 19  1  0  0  0  0
 15 43  1  0  0  0  0
 15 44  1  0  0  0  0
 16 20  1  0  0  0  0
 16 18  2  0  0  0  0
 17 45  1  0  0  0  0
 17 46  1  0  0  0  0
 17 47  1  0  0  0  0
 18 48  1  0  0  0  0
 19 21  2  0  0  0  0
 20 22  1  0  0  0  0
 20 23  2  0  0  0  0
 22 49  1  0  0  0  0
 22 50  1  0  0  0  0
 22 51  1  0  0  0  0
M  END
>  <Mol_ID>
3586

>  <Formula>
C21H28O2

>  <MolWeight>
312.44582

>  <Cat>
S6140

>  <Name>
16-Dehydroprogesterone

>  <Synonyms>
N/A

>  <Target>
Others

>  <Form>
free base

>  <CAS>
1096-38-4

>  <URL>
http://www.selleck.cn/products/16-dehydroprogesterone.html

$$$$
