192441-08-0.cdx
 OpenBabel08302520413D

 26 28  0  0  0  0  0  0  0  0999 V2000
    0.8614   -1.3704   -0.3220 N   0  0  0  0  0  0  0  0  0  0  0  0
    2.0616    0.6983   -0.3099 N   0  0  0  0  0  0  0  0  0  0  0  0
   -0.2574   -0.6395   -0.1866 C   0  0  0  0  0  0  0  0  0  0  0  0
   -0.2583    0.7367   -0.1065 C   0  0  0  0  0  0  0  0  0  0  0  0
    0.9318    1.4186   -0.1616 C   0  0  0  0  0  0  0  0  0  0  0  0
    1.9721   -0.6396   -0.3917 C   0  0  0  0  0  0  0  0  0  0  0  0
   -1.5302   -1.1358   -0.0884 N   0  0  0  0  0  0  0  0  0  0  0  0
   -1.5711    1.0833    0.0348 N   0  0  0  0  0  0  0  0  0  0  0  0
    2.1565    5.8141   -0.5798 C   0  0  0  0  0  0  0  0  0  0  0  0
   -2.2981   -0.0756    0.0455 C   0  0  0  0  0  0  0  0  0  0  0  0
    2.4268    5.2698    1.9172 S   0  0  0  0  0  0  0  0  0  0  0  0
    2.2689    4.7436    0.2887 C   0  0  0  0  0  0  0  0  0  0  0  0
    2.2539    7.0531    0.1014 C   0  0  0  0  0  0  0  0  0  0  0  0
    2.4097    6.9180    1.4572 C   0  0  0  0  0  0  0  0  0  0  0  0
    0.9733    2.7934   -0.0371 O   0  0  0  0  0  0  0  0  0  0  0  0
    3.1696   -1.3244   -0.4913 N   0  0  0  0  0  0  0  0  0  0  0  0
    2.3184    3.2791   -0.0355 C   0  0  0  0  0  0  0  0  0  0  0  0
    2.1980    8.7020   -0.8116 Br  0  0  0  0  0  0  0  0  0  0  0  0
   -1.9348    2.0222    0.1212 H   0  0  0  0  0  0  0  0  0  0  0  0
    2.0433    5.7010   -1.6515 H   0  0  0  0  0  0  0  0  0  0  0  0
   -3.3757   -0.0876    0.1565 H   0  0  0  0  0  0  0  0  0  0  0  0
    2.5182    7.6952    2.2013 H   0  0  0  0  0  0  0  0  0  0  0  0
    3.0531   -2.2546   -0.1098 H   0  0  0  0  0  0  0  0  0  0  0  0
    3.9194   -0.7639   -0.1125 H   0  0  0  0  0  0  0  0  0  0  0  0
    2.9311    2.7594    0.7129 H   0  0  0  0  0  0  0  0  0  0  0  0
    2.7652    3.1438   -1.0290 H   0  0  0  0  0  0  0  0  0  0  0  0
  2  6  2  0  0  0  0
  3  1  2  0  0  0  0
  4  3  1  0  0  0  0
  5  2  1  0  0  0  0
  5  4  2  0  0  0  0
  6  1  1  0  0  0  0
  7  3  1  0  0  0  0
  8  4  1  0  0  0  0
  8 10  1  0  0  0  0
  8 19  1  0  0  0  0
  9 12  2  0  0  0  0
  9 20  1  0  0  0  0
 10  7  2  0  0  0  0
 10 21  1  0  0  0  0
 11 12  1  0  0  0  0
 12 17  1  0  0  0  0
 13  9  1  0  0  0  0
 14 11  1  0  0  0  0
 14 13  2  0  0  0  0
 14 22  1  0  0  0  0
 15  5  1  0  0  0  0
 16  6  1  0  0  0  0
 16 23  1  0  0  0  0
 16 24  1  0  0  0  0
 17 15  1  0  0  0  0
 17 25  1  0  0  0  0
 17 26  1  0  0  0  0
 18 13  1  0  0  0  0
M  END
>  <Mol_ID>
3888

>  <Formula>
C10H8BrN5OS

>  <MolWeight>
326.17242

>  <Cat>
S8056

>  <Name>
Lomeguatrib

>  <Synonyms>
PaTrin-2

>  <Target>
DNA alkylator

>  <Form>
free base

>  <CAS>
192441-08-0

>  <URL>
http://selleckchem.com/products/lomeguatrib.html

$$$$
