2'-Deoxycytidine
 OpenBabel08302521363D

 29 30  0  0  1  0  0  0  0  0999 V2000
    4.7332    2.1230   -0.9802 O   0  0  0  0  0  0  0  0  0  0  0  0
   -1.0400    2.1352    1.0536 C   0  0  0  0  0  0  0  0  0  0  0  0
   -1.1790    1.7269    2.4149 O   0  0  0  0  0  0  0  0  0  0  0  0
    0.7611    4.8569   -0.6825 O   0  0  0  0  0  0  0  0  0  0  0  0
    5.1289   -2.3583   -0.3879 N   0  0  0  0  0  0  0  0  0  0  0  0
    2.2597    2.3208    0.0967 C   0  0  2  0  0  0  0  0  0  0  0  0
    1.3683    2.3548    1.2273 O   0  0  0  0  0  0  0  0  0  0  0  0
    1.4086    2.5839   -1.1381 C   0  0  0  0  0  0  0  0  0  0  0  0
    0.1656    3.0606    0.8514 C   0  0  1  0  0  0  0  0  0  0  0  0
    0.3310    3.4974   -0.6034 C   0  0  1  0  0  0  0  0  0  0  0  0
    2.9815    1.0610    0.0376 N   0  0  0  0  0  0  0  0  0  0  0  0
    4.2477    1.0749   -0.5576 C   0  0  0  0  0  0  0  0  0  0  0  0
    2.4022   -0.1181    0.4527 C   0  0  0  0  0  0  0  0  0  0  0  0
    4.9380   -0.1085   -0.6615 N   0  0  0  0  0  0  0  0  0  0  0  0
    3.0448   -1.2776    0.3397 C   0  0  0  0  0  0  0  0  0  0  0  0
    4.3939   -1.2128   -0.2537 C   0  0  0  0  0  0  0  0  0  0  0  0
   -1.9645    2.6461    0.7667 H   0  0  0  0  0  0  0  0  0  0  0  0
   -0.9445    1.2233    0.4566 H   0  0  0  0  0  0  0  0  0  0  0  0
   -0.7560    2.3956    2.9815 H   0  0  0  0  0  0  0  0  0  0  0  0
    1.5074    5.0007   -0.0731 H   0  0  0  0  0  0  0  0  0  0  0  0
    4.9822   -3.0912    0.2942 H   0  0  0  0  0  0  0  0  0  0  0  0
    6.1092   -2.1690   -0.5739 H   0  0  0  0  0  0  0  0  0  0  0  0
    2.9686    3.1447    0.2441 H   0  0  0  0  0  0  0  0  0  0  0  0
    0.9557    1.6529   -1.4986 H   0  0  0  0  0  0  0  0  0  0  0  0
    1.9969    3.0183   -1.9522 H   0  0  0  0  0  0  0  0  0  0  0  0
    0.0841    3.9202    1.5262 H   0  0  0  0  0  0  0  0  0  0  0  0
   -0.5955    3.4294   -1.1811 H   0  0  0  0  0  0  0  0  0  0  0  0
    1.4030   -0.0680    0.8786 H   0  0  0  0  0  0  0  0  0  0  0  0
    2.6264   -2.2255    0.6478 H   0  0  0  0  0  0  0  0  0  0  0  0
  1 12  2  0  0  0  0
  2  3  1  0  0  0  0
  2 17  1  0  0  0  0
  2 18  1  0  0  0  0
  3 19  1  0  0  0  0
  4 20  1  0  0  0  0
  5 16  1  0  0  0  0
  5 21  1  0  0  0  0
  5 22  1  0  0  0  0
  6  7  1  0  0  0  0
  6  8  1  0  0  0  0
  6 11  1  0  0  0  0
  6 23  1  1  0  0  0
  7  9  1  0  0  0  0
  8 10  1  0  0  0  0
  8 24  1  0  0  0  0
  8 25  1  0  0  0  0
  9 10  1  0  0  0  0
  9 26  1  1  0  0  0
  9  2  1  0  0  0  0
 10  4  1  0  0  0  0
 10 27  1  6  0  0  0
 11 12  1  0  0  0  0
 11 13  1  0  0  0  0
 12 14  1  0  0  0  0
 13 15  2  0  0  0  0
 13 28  1  0  0  0  0
 14 16  2  0  0  0  0
 15 16  1  0  0  0  0
 15 29  1  0  0  0  0
M  END
>  <Mol_ID>
7069

>  <Formula>
C9H13N3O4

>  <MolWeight>
227.21722

>  <Cat>
E4082

>  <Name>
2'-Deoxycytidine

>  <Synonyms>
2'-Deoxycytidine monohydrate

>  <Target>
Endogenous Metabolite

>  <Form>
free base

>  <CAS>
951-77-9

>  <URL>
https://www.selleckchem.com/products/2-deoxycytidine.html

$$$$
