2'-Hydroxy-2-methoxychalcone
 OpenBabel08302520143D

 33 34  0  0  0  0  0  0  0  0999 V2000
    1.4377   -0.1278    0.0752 C   0  0  0  0  0  0  0  0  0  0  0  0
    0.5264    0.2212    1.0890 C   0  0  0  0  0  0  0  0  0  0  0  0
    2.8830   -0.3189    0.2458 C   0  0  0  0  0  0  0  0  0  0  0  0
    0.9477   -0.3481   -1.2302 C   0  0  0  0  0  0  0  0  0  0  0  0
   -0.8367    0.3431    0.7644 C   0  0  0  0  0  0  0  0  0  0  0  0
    0.7387    0.4649    2.4177 O   0  0  0  0  0  0  0  0  0  0  0  0
    3.7744    0.6592    0.0226 C   0  0  0  0  0  0  0  0  0  0  0  0
   -0.4104   -0.2289   -1.5299 C   0  0  0  0  0  0  0  0  0  0  0  0
   -1.3056    0.1194   -0.5290 C   0  0  0  0  0  0  0  0  0  0  0  0
    2.0405    0.3928    2.9689 C   0  0  0  0  0  0  0  0  0  0  0  0
    5.2236    0.3982    0.2588 C   0  0  0  0  0  0  0  0  0  0  0  0
    6.2064    1.4594   -0.0802 C   0  0  0  0  0  0  0  0  0  0  0  0
    5.6189   -0.6373    0.7905 O   0  0  0  0  0  0  0  0  0  0  0  0
    7.4172    1.5284    0.6281 C   0  0  0  0  0  0  0  0  0  0  0  0
    5.9636    2.3916   -1.0985 C   0  0  0  0  0  0  0  0  0  0  0  0
    8.3360    2.5443    0.3705 C   0  0  0  0  0  0  0  0  0  0  0  0
    7.7700    0.6258    1.5967 O   0  0  0  0  0  0  0  0  0  0  0  0
    6.8933    3.4012   -1.3655 C   0  0  0  0  0  0  0  0  0  0  0  0
    8.0710    3.4845   -0.6235 C   0  0  0  0  0  0  0  0  0  0  0  0
    3.1920   -1.3137    0.5609 H   0  0  0  0  0  0  0  0  0  0  0  0
    1.6306   -0.6347   -2.0290 H   0  0  0  0  0  0  0  0  0  0  0  0
   -1.5468    0.6095    1.5453 H   0  0  0  0  0  0  0  0  0  0  0  0
    3.4566    1.6508   -0.2743 H   0  0  0  0  0  0  0  0  0  0  0  0
   -0.7666   -0.4179   -2.5392 H   0  0  0  0  0  0  0  0  0  0  0  0
   -2.3670    0.2097   -0.7457 H   0  0  0  0  0  0  0  0  0  0  0  0
    2.5012   -0.5845    2.8053 H   0  0  0  0  0  0  0  0  0  0  0  0
    2.6628    1.2153    2.6061 H   0  0  0  0  0  0  0  0  0  0  0  0
    1.9431    0.5167    4.0525 H   0  0  0  0  0  0  0  0  0  0  0  0
    5.0685    2.3416   -1.7115 H   0  0  0  0  0  0  0  0  0  0  0  0
    9.2603    2.5964    0.9405 H   0  0  0  0  0  0  0  0  0  0  0  0
    7.1452   -0.1320    1.5429 H   0  0  0  0  0  0  0  0  0  0  0  0
    6.7002    4.1227   -2.1562 H   0  0  0  0  0  0  0  0  0  0  0  0
    8.7901    4.2742   -0.8277 H   0  0  0  0  0  0  0  0  0  0  0  0
  1  2  2  0  0  0  0
  1  3  1  0  0  0  0
  1  4  1  0  0  0  0
  2  5  1  0  0  0  0
  2  6  1  0  0  0  0
  3  7  2  0  0  0  0
  3 20  1  0  0  0  0
  4  8  2  0  0  0  0
  4 21  1  0  0  0  0
  5  9  2  0  0  0  0
  5 22  1  0  0  0  0
  6 10  1  0  0  0  0
  7 11  1  0  0  0  0
  7 23  1  0  0  0  0
  8  9  1  0  0  0  0
  8 24  1  0  0  0  0
  9 25  1  0  0  0  0
 10 26  1  0  0  0  0
 10 27  1  0  0  0  0
 10 28  1  0  0  0  0
 11 12  1  0  0  0  0
 11 13  2  0  0  0  0
 12 14  2  0  0  0  0
 12 15  1  0  0  0  0
 14 16  1  0  0  0  0
 14 17  1  0  0  0  0
 15 18  2  0  0  0  0
 15 29  1  0  0  0  0
 16 19  2  0  0  0  0
 16 30  1  0  0  0  0
 17 31  1  0  0  0  0
 18 19  1  0  0  0  0
 18 32  1  0  0  0  0
 19 33  1  0  0  0  0
M  END
>  <Mol_ID>
3160

>  <Formula>
C16H14O3

>  <MolWeight>
254.28056

>  <Cat>
S5853

>  <Name>
2'-Hydroxy-2-methoxychalcone

>  <Synonyms>
N/A

>  <Target>
Others

>  <Form>
Free Base

>  <CAS>
42220-77-9

>  <URL>
http://www.selleckchem.com/products/2-hydroxy-2-methoxychalcone.html

$$$$
