2'-O-Methyladenosine
 OpenBabel08302521373D

 35 37  0  0  1  0  0  0  0  0999 V2000
    0.9409    0.2911   -0.1863 O   0  0  0  0  0  0  0  0  0  0  0  0
    0.3158    1.0256    0.8601 C   0  0  0  0  0  0  0  0  0  0  0  0
    2.3534    2.3636   -1.3766 O   0  0  0  0  0  0  0  0  0  0  0  0
    5.4533    1.1504    0.2820 C   0  0  0  0  0  0  0  0  0  0  0  0
    6.7394    0.8015   -0.2204 O   0  0  0  0  0  0  0  0  0  0  0  0
    2.6589   -6.5880   -0.1777 N   0  0  0  0  0  0  0  0  0  0  0  0
    3.1381   -2.0103   -0.7561 N   0  0  0  0  0  0  0  0  0  0  0  0
    2.5714   -3.1006   -1.3600 C   0  0  0  0  0  0  0  0  0  0  0  0
    3.8478   -2.4664    0.3254 C   0  0  0  0  0  0  0  0  0  0  0  0
    2.9249   -4.1750   -0.5522 C   0  0  0  0  0  0  0  0  0  0  0  0
    1.8235   -3.1393   -2.4724 N   0  0  0  0  0  0  0  0  0  0  0  0
    3.7105   -3.7582    0.5012 N   0  0  0  0  0  0  0  0  0  0  0  0
    2.4260   -5.4335   -0.9229 C   0  0  0  0  0  0  0  0  0  0  0  0
    1.4214   -4.4019   -2.7406 C   0  0  0  0  0  0  0  0  0  0  0  0
    1.6603   -5.5259   -2.0297 N   0  0  0  0  0  0  0  0  0  0  0  0
    2.9922   -0.6283   -1.1610 C   0  0  1  0  0  0  0  0  0  0  0  0
    2.3627    0.2720   -0.0873 C   0  0  1  0  0  0  0  0  0  0  0  0
    4.3116   -0.1048   -1.4377 O   0  0  0  0  0  0  0  0  0  0  0  0
    3.0381    1.6145   -0.3680 C   0  0  1  0  0  0  0  0  0  0  0  0
    4.4294    1.2141   -0.8547 C   0  0  1  0  0  0  0  0  0  0  0  0
    0.4771    0.5266    1.8206 H   0  0  0  0  0  0  0  0  0  0  0  0
    0.6877    2.0529    0.9056 H   0  0  0  0  0  0  0  0  0  0  0  0
   -0.7589    1.0593    0.6619 H   0  0  0  0  0  0  0  0  0  0  0  0
    2.3838    1.8806   -2.2213 H   0  0  0  0  0  0  0  0  0  0  0  0
    5.5394    2.1208    0.7792 H   0  0  0  0  0  0  0  0  0  0  0  0
    5.1831    0.3984    1.0283 H   0  0  0  0  0  0  0  0  0  0  0  0
    6.6514   -0.0617   -0.6692 H   0  0  0  0  0  0  0  0  0  0  0  0
    2.9236   -6.3937    0.7745 H   0  0  0  0  0  0  0  0  0  0  0  0
    1.9379   -7.2814   -0.3316 H   0  0  0  0  0  0  0  0  0  0  0  0
    4.4418   -1.8183    0.9549 H   0  0  0  0  0  0  0  0  0  0  0  0
    0.8250   -4.5293   -3.6380 H   0  0  0  0  0  0  0  0  0  0  0  0
    2.4135   -0.5986   -2.0923 H   0  0  0  0  0  0  0  0  0  0  0  0
    2.6491   -0.0755    0.9130 H   0  0  0  0  0  0  0  0  0  0  0  0
    3.0680    2.2511    0.5209 H   0  0  0  0  0  0  0  0  0  0  0  0
    4.7938    1.8790   -1.6462 H   0  0  0  0  0  0  0  0  0  0  0  0
  1  2  1  0  0  0  0
  2 21  1  0  0  0  0
  2 22  1  0  0  0  0
  2 23  1  0  0  0  0
  3 24  1  0  0  0  0
  4  5  1  0  0  0  0
  4 25  1  0  0  0  0
  4 26  1  0  0  0  0
  5 27  1  0  0  0  0
  6 13  1  0  0  0  0
  6 28  1  0  0  0  0
  6 29  1  0  0  0  0
  7  8  1  0  0  0  0
  7  9  1  0  0  0  0
  8 10  2  0  0  0  0
  8 11  1  0  0  0  0
  9 12  2  0  0  0  0
  9 30  1  0  0  0  0
 10 12  1  0  0  0  0
 10 13  1  0  0  0  0
 11 14  2  0  0  0  0
 13 15  2  0  0  0  0
 14 15  1  0  0  0  0
 14 31  1  0  0  0  0
 16 17  1  0  0  0  0
 16 18  1  0  0  0  0
 16 32  1  6  0  0  0
 16  7  1  0  0  0  0
 17  1  1  0  0  0  0
 17 19  1  0  0  0  0
 17 33  1  1  0  0  0
 18 20  1  0  0  0  0
 19  3  1  0  0  0  0
 19 20  1  0  0  0  0
 19 34  1  1  0  0  0
 20 35  1  6  0  0  0
 20  4  1  0  0  0  0
M  END
>  <Mol_ID>
7418

>  <Formula>
C11H15N5O4

>  <MolWeight>
281.2679

>  <Cat>
E4517

>  <Name>
2'-O-Methyladenosine

>  <Target>
Others

>  <Form>
Free base

>  <CAS>
2140-79-6

>  <URL>
https://www.selleckchem.com/products/2-o-methyladenosine.html

$$$$
