2,2,2-Tribromoethanol.cdx
 OpenBabel08302522063D

  9  8  0  0  0  0  0  0  0  0999 V2000
    0.8742    0.0522   -0.0022 C   0  0  0  0  0  0  0  0  0  0  0  0
    0.4760    1.4069    0.2274 O   0  0  0  0  0  0  0  0  0  0  0  0
    0.3478   -0.5744   -1.3210 C   0  0  0  0  0  0  0  0  0  0  0  0
   -0.7620    0.6665   -2.3714 Br  0  0  0  0  0  0  0  0  0  0  0  0
    1.8987   -1.1395   -2.4176 Br  0  0  0  0  0  0  0  0  0  0  0  0
   -0.7250   -2.1802   -0.8755 Br  0  0  0  0  0  0  0  0  0  0  0  0
    0.5416   -0.5165    0.8736 H   0  0  0  0  0  0  0  0  0  0  0  0
    1.9694    0.0450    0.0370 H   0  0  0  0  0  0  0  0  0  0  0  0
    0.8617    1.6880    1.0752 H   0  0  0  0  0  0  0  0  0  0  0  0
  1  2  1  0  0  0  0
  1  3  1  0  0  0  0
  1  7  1  0  0  0  0
  1  8  1  0  0  0  0
  2  9  1  0  0  0  0
  3  4  1  0  0  0  0
  3  5  1  0  0  0  0
  3  6  1  0  0  0  0
M  END
>  <Mol_ID>
1473

>  <Formula>
C2H3Br3O

>  <MolWeight>
282.75662

>  <Cat>
S4508

>  <Name>
2,2,2-Tribromoethanol

>  <Synonyms>
TBE, Tribromoethanol

>  <Target>
Others

>  <Form>
free base

>  <CAS>
75-80-9

>  <URL>
http://selleckchem.com/products/2-2-2-tribromoethanol.html

$$$$
