2,2-Dimethylsuccinic acid
 OpenBabel08302521363D

 20 19  0  0  0  0  0  0  0  0999 V2000
    0.9277   -0.0417    0.0650 C   0  0  0  0  0  0  0  0  0  0  0  0
    0.4606   -0.9022    1.2508 C   0  0  0  0  0  0  0  0  0  0  0  0
    0.4252    1.4028    0.1751 C   0  0  0  0  0  0  0  0  0  0  0  0
    0.4284   -0.6495   -1.2618 C   0  0  0  0  0  0  0  0  0  0  0  0
    2.4665   -0.0269    0.0137 C   0  0  0  0  0  0  0  0  0  0  0  0
   -1.0357   -0.9205    1.4426 C   0  0  0  0  0  0  0  0  0  0  0  0
    0.8090    2.0568    1.2890 O   0  0  0  0  0  0  0  0  0  0  0  0
   -0.2332    1.9591   -0.6922 O   0  0  0  0  0  0  0  0  0  0  0  0
   -1.6614   -1.9182    0.7867 O   0  0  0  0  0  0  0  0  0  0  0  0
   -1.6276   -0.1143    2.1427 O   0  0  0  0  0  0  0  0  0  0  0  0
    0.8201   -1.9349    1.1600 H   0  0  0  0  0  0  0  0  0  0  0  0
    0.8878   -0.5379    2.1943 H   0  0  0  0  0  0  0  0  0  0  0  0
    0.8092   -0.0875   -2.1231 H   0  0  0  0  0  0  0  0  0  0  0  0
    0.7583   -1.6887   -1.3711 H   0  0  0  0  0  0  0  0  0  0  0  0
   -0.6645   -0.6308   -1.3334 H   0  0  0  0  0  0  0  0  0  0  0  0
    2.9032    0.4047    0.9203 H   0  0  0  0  0  0  0  0  0  0  0  0
    2.8670   -1.0414   -0.0952 H   0  0  0  0  0  0  0  0  0  0  0  0
    2.8264    0.5685   -0.8336 H   0  0  0  0  0  0  0  0  0  0  0  0
    1.3136    1.5502    1.9498 H   0  0  0  0  0  0  0  0  0  0  0  0
   -1.0849   -2.4955    0.2519 H   0  0  0  0  0  0  0  0  0  0  0  0
  1  2  1  0  0  0  0
  1  3  1  0  0  0  0
  1  4  1  0  0  0  0
  1  5  1  0  0  0  0
  2  6  1  0  0  0  0
  2 11  1  0  0  0  0
  2 12  1  0  0  0  0
  3  7  1  0  0  0  0
  3  8  2  0  0  0  0
  4 13  1  0  0  0  0
  4 14  1  0  0  0  0
  4 15  1  0  0  0  0
  5 16  1  0  0  0  0
  5 17  1  0  0  0  0
  5 18  1  0  0  0  0
  6  9  1  0  0  0  0
  6 10  2  0  0  0  0
  7 19  1  0  0  0  0
  9 20  1  0  0  0  0
M  END
>  <Mol_ID>
7198

>  <Formula>
C6H10O4

>  <MolWeight>
146.1412

>  <Cat>
E4198

>  <Name>
2,2-Dimethylsuccinic acid

>  <Target>
Others

>  <Form>
Free base

>  <CAS>
597-43-3

>  <URL>
https://www.selleckchem.com/products/2-2-dimethylsuccinic-acid.html

$$$$
