2,3,5-Trimethylpyrazine
 OpenBabel08302521363D

 19 19  0  0  0  0  0  0  0  0999 V2000
    0.9854   -0.1131    0.0247 C   0  0  0  0  0  0  0  0  0  0  0  0
   -0.7480    0.2404    2.5808 C   0  0  0  0  0  0  0  0  0  0  0  0
    1.0663   -4.8733    0.8371 C   0  0  0  0  0  0  0  0  0  0  0  0
    0.5405   -1.2301    0.9169 C   0  0  0  0  0  0  0  0  0  0  0  0
   -0.2318   -1.0702    2.0728 C   0  0  0  0  0  0  0  0  0  0  0  0
    0.9618   -2.4627    0.5146 N   0  0  0  0  0  0  0  0  0  0  0  0
   -0.5676   -2.1376    2.8479 N   0  0  0  0  0  0  0  0  0  0  0  0
    0.6174   -3.5199    1.2854 C   0  0  0  0  0  0  0  0  0  0  0  0
   -0.1306   -3.3486    2.4363 C   0  0  0  0  0  0  0  0  0  0  0  0
    0.6723    0.8777    0.3528 H   0  0  0  0  0  0  0  0  0  0  0  0
    0.5900   -0.2696   -0.9842 H   0  0  0  0  0  0  0  0  0  0  0  0
    2.0791   -0.1063   -0.0290 H   0  0  0  0  0  0  0  0  0  0  0  0
   -1.8318    0.1734    2.7235 H   0  0  0  0  0  0  0  0  0  0  0  0
   -0.2845    0.4669    3.5467 H   0  0  0  0  0  0  0  0  0  0  0  0
   -0.5661    1.0829    1.9153 H   0  0  0  0  0  0  0  0  0  0  0  0
    0.6123   -5.1131   -0.1297 H   0  0  0  0  0  0  0  0  0  0  0  0
    2.1555   -4.8895    0.7312 H   0  0  0  0  0  0  0  0  0  0  0  0
    0.7821   -5.6527    1.5511 H   0  0  0  0  0  0  0  0  0  0  0  0
   -0.4073   -4.1823    3.0712 H   0  0  0  0  0  0  0  0  0  0  0  0
  1  4  1  0  0  0  0
  1 10  1  0  0  0  0
  1 11  1  0  0  0  0
  1 12  1  0  0  0  0
  2  5  1  0  0  0  0
  2 13  1  0  0  0  0
  2 14  1  0  0  0  0
  2 15  1  0  0  0  0
  3  8  1  0  0  0  0
  3 16  1  0  0  0  0
  3 17  1  0  0  0  0
  3 18  1  0  0  0  0
  4  5  2  0  0  0  0
  4  6  1  0  0  0  0
  5  7  1  0  0  0  0
  6  8  2  0  0  0  0
  7  9  2  0  0  0  0
  8  9  1  0  0  0  0
  9 19  1  0  0  0  0
M  END
>  <Mol_ID>
7173

>  <Formula>
C7H10N2

>  <MolWeight>
122.1677

>  <Cat>
E4171

>  <Name>
2,3,5-Trimethylpyrazine

>  <Synonyms>
2,3,5-Trimethylpyrazine

>  <Target>
Others

>  <Form>
free base

>  <CAS>
14667-55-1

>  <URL>
https://www.selleckchem.com/products/2-3-5-trimethylpyrazine.html

$$$$
