2,3-Butanediol (mixture of isomers)
 OpenBabel08302520383D

 16 15  0  0  0  0  0  0  0  0999 V2000
    0.9498   -0.1335    0.1020 C   0  0  3  0  0  0  0  0  0  0  0  0
    0.4505    0.4732   -1.2248 C   0  0  3  0  0  0  0  0  0  0  0  0
    0.4867   -1.5628    0.3576 C   0  0  0  0  0  0  0  0  0  0  0  0
    0.4599    0.6727    1.1799 O   0  0  0  0  0  0  0  0  0  0  0  0
    0.9056   -0.2844   -2.4629 C   0  0  0  0  0  0  0  0  0  0  0  0
   -0.9809    0.5559   -1.2005 O   0  0  0  0  0  0  0  0  0  0  0  0
    2.0442   -0.0982    0.1370 H   0  0  0  0  0  0  0  0  0  0  0  0
    0.8070    1.5079   -1.2864 H   0  0  0  0  0  0  0  0  0  0  0  0
    0.8379   -1.9023    1.3385 H   0  0  0  0  0  0  0  0  0  0  0  0
   -0.6061   -1.6314    0.3820 H   0  0  0  0  0  0  0  0  0  0  0  0
    0.8682   -2.2547   -0.3978 H   0  0  0  0  0  0  0  0  0  0  0  0
   -0.4417    0.9475    0.9175 H   0  0  0  0  0  0  0  0  0  0  0  0
    0.4725   -1.2889   -2.5044 H   0  0  0  0  0  0  0  0  0  0  0  0
    0.5651    0.2330   -3.3666 H   0  0  0  0  0  0  0  0  0  0  0  0
    1.9959   -0.3667   -2.4992 H   0  0  0  0  0  0  0  0  0  0  0  0
   -1.3390   -0.3261   -1.4031 H   0  0  0  0  0  0  0  0  0  0  0  0
  1  2  1  0  0  0  0
  1  3  1  0  0  0  0
  1  4  1  0  0  0  0
  1  7  1  0  0  0  0
  2  5  1  0  0  0  0
  2  6  1  0  0  0  0
  2  8  1  0  0  0  0
  3  9  1  0  0  0  0
  3 10  1  0  0  0  0
  3 11  1  0  0  0  0
  4 12  1  0  0  0  0
  5 13  1  0  0  0  0
  5 14  1  0  0  0  0
  5 15  1  0  0  0  0
  6 16  1  0  0  0  0
M  END
>  <Mol_ID>
3525

>  <Formula>
C4H10O2

>  <MolWeight>
90.121

>  <Cat>
S6040

>  <Name>
2,3-Butanediol (mixture of isomers)

>  <Synonyms>
Dimethylene glycol; 2,3-Dihydroxybutane; Butan-2,3-diol; 2,3-Butylene glycol

>  <Target>
Others

>  <Form>
free base

>  <CAS>
513-85-9

>  <URL>
http://www.selleck.cn/products/butanediol-mixture-of-isomers.html

$$$$
