2,4-Dihydroxypyridine
 OpenBabel08302521363D

 13 13  0  0  0  0  0  0  0  0999 V2000
    2.4410   -0.9557   -0.0347 O   0  0  0  0  0  0  0  0  0  0  0  0
   -2.2827   -0.9356    0.0182 O   0  0  0  0  0  0  0  0  0  0  0  0
    0.0807   -1.0407   -0.0187 C   0  0  0  0  0  0  0  0  0  0  0  0
    1.2157   -0.3310   -0.0255 C   0  0  0  0  0  0  0  0  0  0  0  0
   -1.2189   -0.3273    0.0083 C   0  0  0  0  0  0  0  0  0  0  0  0
    1.1985    1.1139   -0.0192 C   0  0  0  0  0  0  0  0  0  0  0  0
   -1.1502    1.0464    0.0248 N   0  0  0  0  0  0  0  0  0  0  0  0
    0.0230    1.7557    0.0075 C   0  0  0  0  0  0  0  0  0  0  0  0
    3.1423   -0.2866    0.0266 H   0  0  0  0  0  0  0  0  0  0  0  0
    0.0594   -2.1209   -0.0247 H   0  0  0  0  0  0  0  0  0  0  0  0
    2.1263    1.6734   -0.0414 H   0  0  0  0  0  0  0  0  0  0  0  0
   -2.0410    1.5280    0.0462 H   0  0  0  0  0  0  0  0  0  0  0  0
   -0.0573    2.8376    0.0140 H   0  0  0  0  0  0  0  0  0  0  0  0
  1  4  1  0  0  0  0
  1  9  1  0  0  0  0
  2  5  2  0  0  0  0
  3  4  2  0  0  0  0
  3  5  1  0  0  0  0
  3 10  1  0  0  0  0
  4  6  1  0  0  0  0
  5  7  1  0  0  0  0
  6  8  2  0  0  0  0
  6 11  1  0  0  0  0
  7  8  1  0  0  0  0
  7 12  1  0  0  0  0
  8 13  1  0  0  0  0
M  END
>  <Mol_ID>
7298

>  <Formula>
C5H5NO2

>  <MolWeight>
111.0987

>  <Cat>
E4326

>  <Name>
2,4-Dihydroxypyridine

>  <Synonyms>
2,4-Dihydroxypyridine

>  <Target>
Others

>  <Form>
free base

>  <CAS>
626-03-9

>  <URL>
https://www.selleckchem.com/products/2-4-dihydroxypyridine.html

$$$$
