2,5-Furandimethanol
 OpenBabel08302521363D

 17 17  0  0  0  0  0  0  0  0999 V2000
    0.9276    0.0545    0.1206 C   0  0  0  0  0  0  0  0  0  0  0  0
    1.5767   -1.1967   -0.0734 O   0  0  0  0  0  0  0  0  0  0  0  0
   -0.3194    2.3455    4.2027 C   0  0  0  0  0  0  0  0  0  0  0  0
   -1.2829    3.1785    3.5689 O   0  0  0  0  0  0  0  0  0  0  0  0
    0.4361    0.0973    1.5160 C   0  0  0  0  0  0  0  0  0  0  0  0
    0.3295    1.3309    2.0955 O   0  0  0  0  0  0  0  0  0  0  0  0
    0.0242   -0.8745    2.4060 C   0  0  0  0  0  0  0  0  0  0  0  0
   -0.1378    1.1373    3.3661 C   0  0  0  0  0  0  0  0  0  0  0  0
   -0.3412   -0.2064    3.5952 C   0  0  0  0  0  0  0  0  0  0  0  0
    0.0934    0.1316   -0.5832 H   0  0  0  0  0  0  0  0  0  0  0  0
    1.6456    0.8566   -0.0730 H   0  0  0  0  0  0  0  0  0  0  0  0
    1.9259   -1.1900   -0.9796 H   0  0  0  0  0  0  0  0  0  0  0  0
   -0.6878    2.0884    5.2001 H   0  0  0  0  0  0  0  0  0  0  0  0
    0.6165    2.9014    4.3066 H   0  0  0  0  0  0  0  0  0  0  0  0
   -0.9977    3.2520    2.6402 H   0  0  0  0  0  0  0  0  0  0  0  0
    0.0040   -1.9375    2.2061 H   0  0  0  0  0  0  0  0  0  0  0  0
   -0.7079   -0.6481    4.5110 H   0  0  0  0  0  0  0  0  0  0  0  0
  1  2  1  0  0  0  0
  1  5  1  0  0  0  0
  1 10  1  0  0  0  0
  1 11  1  0  0  0  0
  2 12  1  0  0  0  0
  3  4  1  0  0  0  0
  3  8  1  0  0  0  0
  3 13  1  0  0  0  0
  3 14  1  0  0  0  0
  4 15  1  0  0  0  0
  5  6  1  0  0  0  0
  5  7  2  0  0  0  0
  6  8  1  0  0  0  0
  7  9  1  0  0  0  0
  7 16  1  0  0  0  0
  8  9  2  0  0  0  0
  9 17  1  0  0  0  0
M  END
>  <Mol_ID>
7218

>  <Formula>
C6H8O3

>  <MolWeight>
128.12592

>  <Cat>
E4224

>  <Name>
2,5-Furandimethanol

>  <Synonyms>
2,5-Bis(hydroxymethyl)furan

>  <Target>
Others

>  <Form>
Free base

>  <CAS>
1883-75-6

>  <URL>
https://www.selleckchem.com/products/2-5-furandimethanol.html

$$$$
