2-(2-Methylbenzamido)acetic acid
 OpenBabel08302521363D

 25 25  0  0  0  0  0  0  0  0999 V2000
    2.5920   -0.0133   -0.0888 C   0  0  0  0  0  0  0  0  0  0  0  0
    3.1870   -1.1434   -0.6122 N   0  0  0  0  0  0  0  0  0  0  0  0
    3.3036    0.9364    0.2218 O   0  0  0  0  0  0  0  0  0  0  0  0
    4.6358   -1.2312   -0.7679 C   0  0  0  0  0  0  0  0  0  0  0  0
    5.1198   -0.5256   -2.0309 C   0  0  0  0  0  0  0  0  0  0  0  0
    4.7582    0.7787   -2.0999 O   0  0  0  0  0  0  0  0  0  0  0  0
    5.8227   -1.0576   -2.8807 O   0  0  0  0  0  0  0  0  0  0  0  0
    0.9400    2.6203   -0.0251 C   0  0  0  0  0  0  0  0  0  0  0  0
    1.0894    0.0226   -0.0312 C   0  0  0  0  0  0  0  0  0  0  0  0
    0.3579    1.2317   -0.0109 C   0  0  0  0  0  0  0  0  0  0  0  0
    0.3836   -1.1986    0.0067 C   0  0  0  0  0  0  0  0  0  0  0  0
   -1.0529    1.1721    0.0120 C   0  0  0  0  0  0  0  0  0  0  0  0
   -1.0135   -1.2303    0.0212 C   0  0  0  0  0  0  0  0  0  0  0  0
   -1.7318   -0.0434    0.0185 C   0  0  0  0  0  0  0  0  0  0  0  0
    2.6291   -1.8243   -1.1101 H   0  0  0  0  0  0  0  0  0  0  0  0
    5.1407   -0.7827    0.0943 H   0  0  0  0  0  0  0  0  0  0  0  0
    4.9006   -2.2907   -0.8211 H   0  0  0  0  0  0  0  0  0  0  0  0
    4.2827    1.0714   -1.2838 H   0  0  0  0  0  0  0  0  0  0  0  0
    0.5892    3.1554   -0.9144 H   0  0  0  0  0  0  0  0  0  0  0  0
    0.6074    3.1650    0.8661 H   0  0  0  0  0  0  0  0  0  0  0  0
    2.0250    2.6734   -0.0407 H   0  0  0  0  0  0  0  0  0  0  0  0
    0.9039   -2.1517    0.0451 H   0  0  0  0  0  0  0  0  0  0  0  0
   -1.6336    2.0945    0.0207 H   0  0  0  0  0  0  0  0  0  0  0  0
   -1.5396   -2.1815    0.0390 H   0  0  0  0  0  0  0  0  0  0  0  0
   -2.8193   -0.0588    0.0298 H   0  0  0  0  0  0  0  0  0  0  0  0
  1  2  1  0  0  0  0
  1  3  2  0  0  0  0
  1  9  1  0  0  0  0
  2  4  1  0  0  0  0
  2 15  1  0  0  0  0
  4  5  1  0  0  0  0
  4 16  1  0  0  0  0
  4 17  1  0  0  0  0
  5  6  1  0  0  0  0
  5  7  2  0  0  0  0
  6 18  1  0  0  0  0
  8 10  1  0  0  0  0
  8 19  1  0  0  0  0
  8 20  1  0  0  0  0
  8 21  1  0  0  0  0
  9 10  2  0  0  0  0
  9 11  1  0  0  0  0
 10 12  1  0  0  0  0
 11 13  2  0  0  0  0
 11 22  1  0  0  0  0
 12 14  2  0  0  0  0
 12 23  1  0  0  0  0
 13 14  1  0  0  0  0
 13 24  1  0  0  0  0
 14 25  1  0  0  0  0
M  END
>  <Mol_ID>
7193

>  <Formula>
C10H11NO3

>  <MolWeight>
193.19924

>  <Cat>
E4193

>  <Name>
2-(2-Methylbenzamido)acetic acid

>  <Synonyms>
2-Methylhippuric acid

>  <Target>
Others

>  <Form>
free base

>  <CAS>
42013-20-7

>  <URL>
https://www.selleckchem.com/products/2-2-methylbenzamido-acetic-acid.html

$$$$
