2-Acetylthiazole
 OpenBabel08302521363D

 13 13  0  0  0  0  0  0  0  0999 V2000
    0.9619   -0.0179    0.0624 C   0  0  0  0  0  0  0  0  0  0  0  0
    0.2200   -1.3351    0.0617 C   0  0  0  0  0  0  0  0  0  0  0  0
    0.3056    1.0288    0.0709 O   0  0  0  0  0  0  0  0  0  0  0  0
    2.4186   -0.0694    0.0537 C   0  0  0  0  0  0  0  0  0  0  0  0
    3.1197   -1.1876    0.0443 N   0  0  0  0  0  0  0  0  0  0  0  0
    3.3425    1.3808    0.0555 S   0  0  0  0  0  0  0  0  0  0  0  0
    4.4695   -0.8883    0.0369 C   0  0  0  0  0  0  0  0  0  0  0  0
    4.7827    0.4531    0.0415 C   0  0  0  0  0  0  0  0  0  0  0  0
   -0.4027   -1.3902    0.9595 H   0  0  0  0  0  0  0  0  0  0  0  0
   -0.4176   -1.3804   -0.8261 H   0  0  0  0  0  0  0  0  0  0  0  0
    0.8848   -2.2010    0.0512 H   0  0  0  0  0  0  0  0  0  0  0  0
    5.1923   -1.6959    0.0280 H   0  0  0  0  0  0  0  0  0  0  0  0
    5.7586    0.9183    0.0377 H   0  0  0  0  0  0  0  0  0  0  0  0
  1  2  1  0  0  0  0
  1  3  2  0  0  0  0
  1  4  1  0  0  0  0
  2  9  1  0  0  0  0
  2 10  1  0  0  0  0
  2 11  1  0  0  0  0
  4  5  2  0  0  0  0
  4  6  1  0  0  0  0
  5  7  1  0  0  0  0
  6  8  1  0  0  0  0
  7  8  2  0  0  0  0
  7 12  1  0  0  0  0
  8 13  1  0  0  0  0
M  END
>  <Mol_ID>
7299

>  <Formula>
C5H5NOS

>  <MolWeight>
127.1643

>  <Cat>
E4327

>  <Name>
2-Acetylthiazole

>  <Synonyms>
2-Acetylthiazole

>  <Target>
Others

>  <Form>
free base

>  <CAS>
24295-03-2

>  <URL>
https://www.selleckchem.com/products/2-acetylthiazole.html

$$$$
