2-Aminoethanethiol
 OpenBabel08302520403D

 11 10  0  0  0  0  0  0  0  0999 V2000
    0.9249    0.0050    0.0944 C   0  0  0  0  0  0  0  0  0  0  0  0
    0.4515   -0.7442    1.3463 C   0  0  0  0  0  0  0  0  0  0  0  0
    0.4537    1.3896    0.0250 N   0  0  0  0  0  0  0  0  0  0  0  0
    1.0219    0.0506    2.8839 S   0  0  0  0  0  0  0  0  0  0  0  0
    0.5685   -0.5266   -0.7951 H   0  0  0  0  0  0  0  0  0  0  0  0
    2.0198    0.0013    0.0443 H   0  0  0  0  0  0  0  0  0  0  0  0
   -0.6423   -0.7924    1.3709 H   0  0  0  0  0  0  0  0  0  0  0  0
    0.8312   -1.7706    1.3279 H   0  0  0  0  0  0  0  0  0  0  0  0
   -0.5666    1.4029    0.0424 H   0  0  0  0  0  0  0  0  0  0  0  0
    0.7349    1.8689    0.8837 H   0  0  0  0  0  0  0  0  0  0  0  0
    2.3351   -0.0381    2.6240 H   0  0  0  0  0  0  0  0  0  0  0  0
  1  2  1  0  0  0  0
  1  3  1  0  0  0  0
  1  5  1  0  0  0  0
  1  6  1  0  0  0  0
  2  4  1  0  0  0  0
  2  7  1  0  0  0  0
  2  8  1  0  0  0  0
  3  9  1  0  0  0  0
  3 10  1  0  0  0  0
  4 11  1  0  0  0  0
M  END
>  <Mol_ID>
3724

>  <Formula>
C2H7NS

>  <MolWeight>
77.14868

>  <Cat>
S6402

>  <Name>
2-Aminoethanethiol

>  <Synonyms>
cysteamine, ¦Â-Mercaptoethylamine, 2-Mercaptoethylamine, Decarboxycysteine, Thioethanolamine, Mercaptamine

>  <Target>
Others

>  <Form>
Free Base

>  <CAS>
60-23-1

>  <URL>
http://www.selleck.cn/products/2-aminoethanethiol.html

$$$$
