2-Aminoisobutyric acid
 OpenBabel08302521383D

 16 15  0  0  0  0  0  0  0  0999 V2000
    0.9469   -0.0108   -0.0896 C   0  0  0  0  0  0  0  0  0  0  0  0
    0.4835    0.1316    1.3848 C   0  0  0  0  0  0  0  0  0  0  0  0
    0.4713    1.1771   -0.9278 C   0  0  0  0  0  0  0  0  0  0  0  0
    0.4506   -1.3335   -0.6783 C   0  0  0  0  0  0  0  0  0  0  0  0
    2.4308   -0.0227   -0.1310 N   0  0  0  0  0  0  0  0  0  0  0  0
   -0.8561    0.1607    1.5643 O   0  0  0  0  0  0  0  0  0  0  0  0
    1.2559    0.2093    2.3333 O   0  0  0  0  0  0  0  0  0  0  0  0
    0.8452    1.1128   -1.9566 H   0  0  0  0  0  0  0  0  0  0  0  0
   -0.6220    1.2211   -0.9824 H   0  0  0  0  0  0  0  0  0  0  0  0
    0.8124    2.1295   -0.5045 H   0  0  0  0  0  0  0  0  0  0  0  0
    0.8103   -1.4730   -1.7045 H   0  0  0  0  0  0  0  0  0  0  0  0
    0.7883   -2.1891   -0.0801 H   0  0  0  0  0  0  0  0  0  0  0  0
   -0.6437   -1.3744   -0.7096 H   0  0  0  0  0  0  0  0  0  0  0  0
    2.7656    0.8180    0.3495 H   0  0  0  0  0  0  0  0  0  0  0  0
    2.7584   -0.7786    0.4774 H   0  0  0  0  0  0  0  0  0  0  0  0
   -1.3831    0.0896    0.7465 H   0  0  0  0  0  0  0  0  0  0  0  0
  1  2  1  0  0  0  0
  1  3  1  0  0  0  0
  1  4  1  0  0  0  0
  1  5  1  0  0  0  0
  2  6  1  0  0  0  0
  2  7  2  0  0  0  0
  3  8  1  0  0  0  0
  3  9  1  0  0  0  0
  3 10  1  0  0  0  0
  4 11  1  0  0  0  0
  4 12  1  0  0  0  0
  4 13  1  0  0  0  0
  5 14  1  0  0  0  0
  5 15  1  0  0  0  0
  6 16  1  0  0  0  0
M  END
>  <Mol_ID>
7918

>  <Formula>
C4H9NO2

>  <MolWeight>
103.11976

>  <Cat>
S6270

>  <Name>
2-Aminoisobutyric acid

>  <Synonyms>
NSC-16590, 2-Methylalanine, H-Aib-OH

>  <Target>
Fungal

>  <Form>
free base

>  <CAS>
62-57-7

>  <URL>
http://www.selleck.cn/products/nsc-16590.html

$$$$
