2-Ethylpyrazine
 OpenBabel08302521363D

 16 16  0  0  0  0  0  0  0  0999 V2000
    1.0478   -0.0562    0.0641 C   0  0  0  0  0  0  0  0  0  0  0  0
    0.9882   -0.5562    1.4995 C   0  0  0  0  0  0  0  0  0  0  0  0
    0.5425    1.3538   -0.0588 C   0  0  0  0  0  0  0  0  0  0  0  0
   -0.8022    1.6153   -0.3057 C   0  0  0  0  0  0  0  0  0  0  0  0
    1.4362    2.3624    0.1070 N   0  0  0  0  0  0  0  0  0  0  0  0
   -1.3063    2.8686   -0.3991 N   0  0  0  0  0  0  0  0  0  0  0  0
    0.9332    3.6148    0.0117 C   0  0  0  0  0  0  0  0  0  0  0  0
   -0.4058    3.8624   -0.2324 C   0  0  0  0  0  0  0  0  0  0  0  0
    0.4642   -0.7157   -0.5889 H   0  0  0  0  0  0  0  0  0  0  0  0
    2.0838   -0.1009   -0.2916 H   0  0  0  0  0  0  0  0  0  0  0  0
    1.5858    0.0765    2.1645 H   0  0  0  0  0  0  0  0  0  0  0  0
   -0.0398   -0.5636    1.8776 H   0  0  0  0  0  0  0  0  0  0  0  0
    1.3781   -1.5774    1.5613 H   0  0  0  0  0  0  0  0  0  0  0  0
   -1.5233    0.8147   -0.4362 H   0  0  0  0  0  0  0  0  0  0  0  0
    1.6447    4.4230    0.1397 H   0  0  0  0  0  0  0  0  0  0  0  0
   -0.7932    4.8722   -0.2992 H   0  0  0  0  0  0  0  0  0  0  0  0
  1  2  1  0  0  0  0
  1  3  1  0  0  0  0
  1  9  1  0  0  0  0
  1 10  1  0  0  0  0
  2 11  1  0  0  0  0
  2 12  1  0  0  0  0
  2 13  1  0  0  0  0
  3  4  2  0  0  0  0
  3  5  1  0  0  0  0
  4  6  1  0  0  0  0
  4 14  1  0  0  0  0
  5  7  2  0  0  0  0
  6  8  2  0  0  0  0
  7  8  1  0  0  0  0
  7 15  1  0  0  0  0
  8 16  1  0  0  0  0
M  END
>  <Mol_ID>
7232

>  <Formula>
C6H8N2

>  <MolWeight>
108.14112

>  <Cat>
E4239

>  <Name>
2-Ethylpyrazine

>  <Target>
Others

>  <Form>
Free base

>  <CAS>
13925-00-3

>  <URL>
https://www.selleckchem.com/products/2-ethylpyrazine.html

$$$$
