2-Heptanol
 OpenBabel08302521363D

 24 23  0  0  0  0  0  0  0  0999 V2000
    1.0767    0.1390   -0.0012 C   0  0  0  0  0  0  0  0  0  0  0  0
    0.5011    0.0284    1.4159 C   0  0  0  0  0  0  0  0  0  0  0  0
    0.5924   -0.9954   -0.9132 C   0  0  3  0  0  0  0  0  0  0  0  0
    0.9726    1.1396    2.3614 C   0  0  0  0  0  0  0  0  0  0  0  0
    1.1581   -0.8635   -2.3196 C   0  0  0  0  0  0  0  0  0  0  0  0
    0.9819   -2.2579   -0.3820 O   0  0  0  0  0  0  0  0  0  0  0  0
    0.6261    2.5682    1.9371 C   0  0  0  0  0  0  0  0  0  0  0  0
   -0.8696    2.8382    1.8728 C   0  0  0  0  0  0  0  0  0  0  0  0
    2.1720    0.1173    0.0649 H   0  0  0  0  0  0  0  0  0  0  0  0
    0.7907    1.0952   -0.4515 H   0  0  0  0  0  0  0  0  0  0  0  0
   -0.5950    0.0144    1.3699 H   0  0  0  0  0  0  0  0  0  0  0  0
    0.8006   -0.9323    1.8540 H   0  0  0  0  0  0  0  0  0  0  0  0
   -0.5027   -0.9845   -0.9649 H   0  0  0  0  0  0  0  0  0  0  0  0
    0.5508    0.9500    3.3543 H   0  0  0  0  0  0  0  0  0  0  0  0
    2.0646    1.0666    2.4699 H   0  0  0  0  0  0  0  0  0  0  0  0
    2.2515   -0.9417   -2.3135 H   0  0  0  0  0  0  0  0  0  0  0  0
    0.7903   -1.6763   -2.9558 H   0  0  0  0  0  0  0  0  0  0  0  0
    0.8770    0.0901   -2.7764 H   0  0  0  0  0  0  0  0  0  0  0  0
    1.9507   -2.2702   -0.3192 H   0  0  0  0  0  0  0  0  0  0  0  0
    1.0712    3.2615    2.6582 H   0  0  0  0  0  0  0  0  0  0  0  0
    1.0827    2.8007    0.9693 H   0  0  0  0  0  0  0  0  0  0  0  0
   -1.3231    2.7475    2.8646 H   0  0  0  0  0  0  0  0  0  0  0  0
   -1.0505    3.8571    1.5124 H   0  0  0  0  0  0  0  0  0  0  0  0
   -1.3811    2.1509    1.1936 H   0  0  0  0  0  0  0  0  0  0  0  0
  1  2  1  0  0  0  0
  1  3  1  0  0  0  0
  1  9  1  0  0  0  0
  1 10  1  0  0  0  0
  2  4  1  0  0  0  0
  2 11  1  0  0  0  0
  2 12  1  0  0  0  0
  3  5  1  0  0  0  0
  3  6  1  0  0  0  0
  3 13  1  0  0  0  0
  4  7  1  0  0  0  0
  4 14  1  0  0  0  0
  4 15  1  0  0  0  0
  5 16  1  0  0  0  0
  5 17  1  0  0  0  0
  5 18  1  0  0  0  0
  6 19  1  0  0  0  0
  7  8  1  0  0  0  0
  7 20  1  0  0  0  0
  7 21  1  0  0  0  0
  8 22  1  0  0  0  0
  8 23  1  0  0  0  0
  8 24  1  0  0  0  0
M  END
>  <Mol_ID>
7203

>  <Formula>
C7H16O

>  <MolWeight>
116.20134

>  <Cat>
E4205

>  <Name>
2-Heptanol

>  <Synonyms>
s-Heptyl alcohol

>  <Target>
Bacterial

>  <Form>
Free base

>  <CAS>
543-49-7

>  <URL>
https://www.selleckchem.com/products/2-heptanol.html

$$$$
