2-Hydroxycinnamic acid
 OpenBabel08302521363D

 20 20  0  0  0  0  0  0  0  0999 V2000
    0.8796   -0.0729   -0.0255 C   0  0  0  0  0  0  0  0  0  0  0  0
    1.8808    0.6421   -0.5599 C   0  0  0  0  0  0  0  0  0  0  0  0
    2.6087    1.6025    0.2924 C   0  0  0  0  0  0  0  0  0  0  0  0
    3.5817    2.2434   -0.3831 O   0  0  0  0  0  0  0  0  0  0  0  0
    2.3756    1.7889    1.4737 O   0  0  0  0  0  0  0  0  0  0  0  0
    1.5882   -2.9084   -0.2677 O   0  0  0  0  0  0  0  0  0  0  0  0
    0.1211   -1.0462   -0.8147 C   0  0  0  0  0  0  0  0  0  0  0  0
    0.4886   -2.3959   -0.9004 C   0  0  0  0  0  0  0  0  0  0  0  0
   -1.0151   -0.6107   -1.5102 C   0  0  0  0  0  0  0  0  0  0  0  0
   -0.2674   -3.2952   -1.6499 C   0  0  0  0  0  0  0  0  0  0  0  0
   -1.7734   -1.5115   -2.2632 C   0  0  0  0  0  0  0  0  0  0  0  0
   -1.4020   -2.8534   -2.3292 C   0  0  0  0  0  0  0  0  0  0  0  0
    0.5803    0.0380    1.0152 H   0  0  0  0  0  0  0  0  0  0  0  0
    2.1644    0.5273   -1.5976 H   0  0  0  0  0  0  0  0  0  0  0  0
    3.6749    2.0038   -1.3226 H   0  0  0  0  0  0  0  0  0  0  0  0
    1.9873   -2.2119    0.2795 H   0  0  0  0  0  0  0  0  0  0  0  0
   -1.3245    0.4312   -1.4647 H   0  0  0  0  0  0  0  0  0  0  0  0
    0.0246   -4.3408   -1.6978 H   0  0  0  0  0  0  0  0  0  0  0  0
   -2.6580   -1.1665   -2.7932 H   0  0  0  0  0  0  0  0  0  0  0  0
   -1.9965   -3.5568   -2.9068 H   0  0  0  0  0  0  0  0  0  0  0  0
  1  2  2  0  0  0  0
  1  7  1  0  0  0  0
  1 13  1  0  0  0  0
  2  3  1  0  0  0  0
  2 14  1  0  0  0  0
  3  4  1  0  0  0  0
  3  5  2  0  0  0  0
  4 15  1  0  0  0  0
  6  8  1  0  0  0  0
  6 16  1  0  0  0  0
  7  8  2  0  0  0  0
  7  9  1  0  0  0  0
  8 10  1  0  0  0  0
  9 11  2  0  0  0  0
  9 17  1  0  0  0  0
 10 12  2  0  0  0  0
 10 18  1  0  0  0  0
 11 12  1  0  0  0  0
 11 19  1  0  0  0  0
 12 20  1  0  0  0  0
M  END
>  <Mol_ID>
7212

>  <Formula>
C9H8O3

>  <MolWeight>
164.15802

>  <Cat>
E4216

>  <Name>
2-Hydroxycinnamic acid

>  <Synonyms>
2-Hydroxycinnamic acid

>  <Target>
Others

>  <Form>
free base

>  <CAS>
614-60-8

>  <URL>
https://www.selleckchem.com/products/2-hydroxycinnamic-acid.html

$$$$
