2-Hydroxyisocaproic acid
 OpenBabel08302521323D

 21 20  0  0  0  0  0  0  0  0999 V2000
   -0.7287   -1.1065   -0.8517 O   0  0  0  0  0  0  0  0  0  0  0  0
    0.4543   -0.3751    1.4245 O   0  0  0  0  0  0  0  0  0  0  0  0
    1.7837    0.9808    0.1944 O   0  0  0  0  0  0  0  0  0  0  0  0
    2.6814   -0.4013   -2.4629 C   0  0  0  0  0  0  0  0  0  0  0  0
    1.1528   -0.5009   -2.2682 C   0  0  0  0  0  0  0  0  0  0  0  0
    0.6981   -0.9510   -0.8772 C   0  0  3  0  0  0  0  0  0  0  0  0
    3.4105   -1.6974   -2.1050 C   0  0  0  0  0  0  0  0  0  0  0  0
    3.0054   -0.0037   -3.9060 C   0  0  0  0  0  0  0  0  0  0  0  0
    1.0639    0.0001    0.2686 C   0  0  0  0  0  0  0  0  0  0  0  0
   -1.1144   -0.2593   -1.1406 H   0  0  0  0  0  0  0  0  0  0  0  0
   -0.1443   -1.1346    1.2544 H   0  0  0  0  0  0  0  0  0  0  0  0
    3.0744    0.3933   -1.8188 H   0  0  0  0  0  0  0  0  0  0  0  0
    0.7391   -1.2022   -3.0066 H   0  0  0  0  0  0  0  0  0  0  0  0
    0.6930    0.4679   -2.5043 H   0  0  0  0  0  0  0  0  0  0  0  0
    1.1196   -1.9324   -0.6414 H   0  0  0  0  0  0  0  0  0  0  0  0
    2.9710   -2.5583   -2.6203 H   0  0  0  0  0  0  0  0  0  0  0  0
    4.4694   -1.6398   -2.3765 H   0  0  0  0  0  0  0  0  0  0  0  0
    3.3678   -1.8871   -1.0268 H   0  0  0  0  0  0  0  0  0  0  0  0
    2.5182    0.9412   -4.1664 H   0  0  0  0  0  0  0  0  0  0  0  0
    4.0838    0.1316   -4.0332 H   0  0  0  0  0  0  0  0  0  0  0  0
    2.6725   -0.7688   -4.6140 H   0  0  0  0  0  0  0  0  0  0  0  0
  1  6  1  0  0  0  0
  1 10  1  0  0  0  0
  2  9  1  0  0  0  0
  2 11  1  0  0  0  0
  3  9  2  0  0  0  0
  4  5  1  0  0  0  0
  4  7  1  0  0  0  0
  4  8  1  0  0  0  0
  4 12  1  0  0  0  0
  5  6  1  0  0  0  0
  5 13  1  0  0  0  0
  5 14  1  0  0  0  0
  6  9  1  0  0  0  0
  6 15  1  0  0  0  0
  7 16  1  0  0  0  0
  7 17  1  0  0  0  0
  7 18  1  0  0  0  0
  8 19  1  0  0  0  0
  8 20  1  0  0  0  0
  8 21  1  0  0  0  0
M  END
>  <Mol_ID>
6319

>  <Formula>
C6H12O3

>  <MolWeight>
132.15768

>  <Cat>
E0652

>  <Name>
2-Hydroxyisocaproic acid

>  <Synonyms>
HICA

>  <Target>
Others

>  <Form>
free base

>  <CAS>
498-36-2

>  <URL>
http://www.selleckchem.com/products/2-hydroxyisocaproic-acid.html

$$$$
