2-Ketoglutaric acid
 OpenBabel08302520393D

 16 15  0  0  0  0  0  0  0  0999 V2000
    0.8566    0.0553    0.0604 C   0  0  0  0  0  0  0  0  0  0  0  0
    0.0712   -1.2227    0.1255 C   0  0  0  0  0  0  0  0  0  0  0  0
    2.2795    0.0397    0.6130 C   0  0  0  0  0  0  0  0  0  0  0  0
    0.4208    1.1287   -0.3493 O   0  0  0  0  0  0  0  0  0  0  0  0
   -0.7090   -1.2989    1.4298 C   0  0  0  0  0  0  0  0  0  0  0  0
    2.8533    1.2480    0.4689 O   0  0  0  0  0  0  0  0  0  0  0  0
    2.7820   -0.9344    1.1331 O   0  0  0  0  0  0  0  0  0  0  0  0
   -1.5187   -2.5688    1.4997 C   0  0  0  0  0  0  0  0  0  0  0  0
   -2.2155   -2.6792    2.6527 O   0  0  0  0  0  0  0  0  0  0  0  0
   -1.5653   -3.4167    0.6237 O   0  0  0  0  0  0  0  0  0  0  0  0
   -0.6043   -1.2464   -0.7381 H   0  0  0  0  0  0  0  0  0  0  0  0
    0.7462   -2.0780    0.0083 H   0  0  0  0  0  0  0  0  0  0  0  0
   -0.0221   -1.2734    2.2830 H   0  0  0  0  0  0  0  0  0  0  0  0
   -1.3935   -0.4462    1.5057 H   0  0  0  0  0  0  0  0  0  0  0  0
    2.2172    1.8635    0.0325 H   0  0  0  0  0  0  0  0  0  0  0  0
   -2.0923   -1.9359    3.2727 H   0  0  0  0  0  0  0  0  0  0  0  0
  1  2  1  0  0  0  0
  1  3  1  0  0  0  0
  1  4  2  0  0  0  0
  2  5  1  0  0  0  0
  2 11  1  0  0  0  0
  2 12  1  0  0  0  0
  3  6  1  0  0  0  0
  3  7  2  0  0  0  0
  5  8  1  0  0  0  0
  5 13  1  0  0  0  0
  5 14  1  0  0  0  0
  6 15  1  0  0  0  0
  8  9  1  0  0  0  0
  8 10  2  0  0  0  0
  9 16  1  0  0  0  0
M  END
>  <Mol_ID>
3602

>  <Formula>
C5H6O5

>  <MolWeight>
146.09814

>  <Cat>
S6237

>  <Name>
2-Ketoglutaric acid

>  <Synonyms>
alpha-ketoglutarate, alpha-ketoglutaric acid, 2-oxoglutaric acid

>  <Target>
Tyrosinase

>  <Form>
free base

>  <CAS>
328-50-7

>  <URL>
http://www.selleck.cn/products/2-ketoglutaric-acid.html

$$$$
