2-Methyl-4-pentenoic Acid
 OpenBabel08302520383D

 18 17  0  0  0  0  0  0  0  0999 V2000
    1.0334    0.1241    0.0980 C   0  0  3  0  0  0  0  0  0  0  0  0
    0.5002   -1.1716    0.7323 C   0  0  0  0  0  0  0  0  0  0  0  0
    0.5207    1.3528    0.8286 C   0  0  0  0  0  0  0  0  0  0  0  0
    0.5992    0.2100   -1.3634 C   0  0  0  0  0  0  0  0  0  0  0  0
    1.0084   -1.4017    2.1295 C   0  0  0  0  0  0  0  0  0  0  0  0
    1.3616    2.4102    0.7501 O   0  0  0  0  0  0  0  0  0  0  0  0
   -0.5512    1.4237    1.4099 O   0  0  0  0  0  0  0  0  0  0  0  0
    1.7484   -2.4567    2.4957 C   0  0  0  0  0  0  0  0  0  0  0  0
    2.1303    0.1124    0.1538 H   0  0  0  0  0  0  0  0  0  0  0  0
   -0.5957   -1.1581    0.7645 H   0  0  0  0  0  0  0  0  0  0  0  0
    0.7808   -2.0196    0.0957 H   0  0  0  0  0  0  0  0  0  0  0  0
    0.9519    1.1374   -1.8289 H   0  0  0  0  0  0  0  0  0  0  0  0
    1.0009   -0.6306   -1.9389 H   0  0  0  0  0  0  0  0  0  0  0  0
   -0.4923    0.1918   -1.4531 H   0  0  0  0  0  0  0  0  0  0  0  0
    0.7131   -0.6791    2.8899 H   0  0  0  0  0  0  0  0  0  0  0  0
    2.1814    2.2350    0.2519 H   0  0  0  0  0  0  0  0  0  0  0  0
    2.0585   -2.5822    3.5290 H   0  0  0  0  0  0  0  0  0  0  0  0
    2.0445   -3.2235    1.7866 H   0  0  0  0  0  0  0  0  0  0  0  0
  1  2  1  0  0  0  0
  1  3  1  0  0  0  0
  1  4  1  0  0  0  0
  1  9  1  0  0  0  0
  2  5  1  0  0  0  0
  2 10  1  0  0  0  0
  2 11  1  0  0  0  0
  3  6  1  0  0  0  0
  3  7  2  0  0  0  0
  4 12  1  0  0  0  0
  4 13  1  0  0  0  0
  4 14  1  0  0  0  0
  5  8  2  0  0  0  0
  5 15  1  0  0  0  0
  6 16  1  0  0  0  0
  8 17  1  0  0  0  0
  8 18  1  0  0  0  0
M  END
>  <Mol_ID>
3465

>  <Formula>
C6H10O2

>  <MolWeight>
114.1424

>  <Cat>
S6167

>  <Name>
2-Methyl-4-pentenoic Acid

>  <Synonyms>
N/A

>  <Target>
Others

>  <Form>
free base

>  <CAS>
1575-74-2

>  <URL>
http://www.selleck.cn/products/2-methyl-4-pentenoic-acid.html

$$$$
