2-Methoxycinnamic acid
 OpenBabel08302520343D

 23 23  0  0  0  0  0  0  0  0999 V2000
    0.7242    0.8351    0.5365 C   0  0  0  0  0  0  0  0  0  0  0  0
   -0.0181    1.4194   -0.5974 C   0  0  0  0  0  0  0  0  0  0  0  0
   -1.0605    0.7414   -1.1001 C   0  0  0  0  0  0  0  0  0  0  0  0
   -1.8082    1.2050   -2.2712 C   0  0  0  0  0  0  0  0  0  0  0  0
   -1.4645    0.9051   -3.6011 C   0  0  0  0  0  0  0  0  0  0  0  0
   -2.2370    1.4331   -4.6458 C   0  0  0  0  0  0  0  0  0  0  0  0
   -3.3472    2.2365   -4.3871 C   0  0  0  0  0  0  0  0  0  0  0  0
   -3.6887    2.5371   -3.0738 C   0  0  0  0  0  0  0  0  0  0  0  0
   -2.9235    2.0264   -2.0234 C   0  0  0  0  0  0  0  0  0  0  0  0
    0.4648   -0.2407    1.0494 O   0  0  0  0  0  0  0  0  0  0  0  0
    1.7451    1.6159    0.9326 O   0  0  0  0  0  0  0  0  0  0  0  0
   -0.3844    0.1877   -4.0442 O   0  0  0  0  0  0  0  0  0  0  0  0
    0.0152   -0.9426   -3.2801 C   0  0  0  0  0  0  0  0  0  0  0  0
    0.3034    2.3588   -1.0253 H   0  0  0  0  0  0  0  0  0  0  0  0
   -1.3868   -0.2062   -0.6760 H   0  0  0  0  0  0  0  0  0  0  0  0
   -1.9703    1.2065   -5.6760 H   0  0  0  0  0  0  0  0  0  0  0  0
   -3.9390    2.6274   -5.2109 H   0  0  0  0  0  0  0  0  0  0  0  0
   -4.5473    3.1706   -2.8656 H   0  0  0  0  0  0  0  0  0  0  0  0
   -3.2036    2.2797   -1.0024 H   0  0  0  0  0  0  0  0  0  0  0  0
    1.8539    2.4464    0.4344 H   0  0  0  0  0  0  0  0  0  0  0  0
    0.7561   -0.6496   -2.5313 H   0  0  0  0  0  0  0  0  0  0  0  0
   -0.8311   -1.4682   -2.8262 H   0  0  0  0  0  0  0  0  0  0  0  0
    0.5095   -1.6431   -3.9605 H   0  0  0  0  0  0  0  0  0  0  0  0
  1  2  1  0  0  0  0
  1 10  2  0  0  0  0
  1 11  1  0  0  0  0
  2  3  2  0  0  0  0
  2 14  1  0  0  0  0
  3  4  1  0  0  0  0
  3 15  1  0  0  0  0
  4  5  2  0  0  0  0
  4  9  1  0  0  0  0
  5  6  1  0  0  0  0
  5 12  1  0  0  0  0
  6  7  2  0  0  0  0
  6 16  1  0  0  0  0
  7  8  1  0  0  0  0
  7 17  1  0  0  0  0
  8  9  2  0  0  0  0
  8 18  1  0  0  0  0
  9 19  1  0  0  0  0
 11 20  1  0  0  0  0
 12 13  1  0  0  0  0
 13 21  1  0  0  0  0
 13 22  1  0  0  0  0
 13 23  1  0  0  0  0
M  END
>  <Mol_ID>
3399

>  <Formula>
C10H10O3

>  <MolWeight>
178.1846

>  <Cat>
S5758

>  <Name>
2-Methoxycinnamic acid

>  <Synonyms>
AI3-11206

>  <Target>
Others

>  <Form>
Free Base

>  <CAS>
6099-03-2

>  <URL>
http://www.selleckchem.com/products/2-methoxycinnamic-acid.html

$$$$
