2-Methylpyrazine
 OpenBabel08302521363D

 13 13  0  0  0  0  0  0  0  0999 V2000
    2.4396    0.2354   -0.0097 C   0  0  0  0  0  0  0  0  0  0  0  0
    0.1104    1.1917    0.0030 C   0  0  0  0  0  0  0  0  0  0  0  0
    0.9519    0.0839   -0.0031 C   0  0  0  0  0  0  0  0  0  0  0  0
   -1.2404    1.0915    0.0045 N   0  0  0  0  0  0  0  0  0  0  0  0
    0.4542   -1.1784   -0.0067 N   0  0  0  0  0  0  0  0  0  0  0  0
   -1.7225   -0.1706   -0.0002 C   0  0  0  0  0  0  0  0  0  0  0  0
   -0.8949   -1.2794   -0.0051 C   0  0  0  0  0  0  0  0  0  0  0  0
    2.8673   -0.2465    0.8749 H   0  0  0  0  0  0  0  0  0  0  0  0
    2.8570   -0.2333   -0.9062 H   0  0  0  0  0  0  0  0  0  0  0  0
    2.7400    1.2879   -0.0037 H   0  0  0  0  0  0  0  0  0  0  0  0
    0.4992    2.2042    0.0064 H   0  0  0  0  0  0  0  0  0  0  0  0
   -2.8019   -0.2683   -0.0007 H   0  0  0  0  0  0  0  0  0  0  0  0
   -1.2961   -2.2861   -0.0085 H   0  0  0  0  0  0  0  0  0  0  0  0
  1  3  1  0  0  0  0
  1  8  1  0  0  0  0
  1  9  1  0  0  0  0
  1 10  1  0  0  0  0
  2  3  2  0  0  0  0
  2  4  1  0  0  0  0
  2 11  1  0  0  0  0
  3  5  1  0  0  0  0
  4  6  2  0  0  0  0
  5  7  2  0  0  0  0
  6  7  1  0  0  0  0
  6 12  1  0  0  0  0
  7 13  1  0  0  0  0
M  END
>  <Mol_ID>
7241

>  <Formula>
C5H6N2

>  <MolWeight>
94.11454

>  <Cat>
E4250

>  <Name>
2-Methylpyrazine

>  <Target>
Others

>  <Form>
Free base

>  <CAS>
109-08-0

>  <URL>
https://www.selleckchem.com/products/2-methylpyrazine.html

$$$$
