2-Methylcyclopentane-1,3-dione
 OpenBabel08302521363D

 16 16  0  0  0  0  0  0  0  0999 V2000
    0.0276    2.0013   -0.4628 C   0  0  0  0  0  0  0  0  0  0  0  0
   -2.3464    0.2115    0.1488 O   0  0  0  0  0  0  0  0  0  0  0  0
    2.3394    0.2016    0.1086 O   0  0  0  0  0  0  0  0  0  0  0  0
   -0.0021    0.7624    0.4059 C   0  0  0  0  0  0  0  0  0  0  0  0
   -1.1742   -0.1304    0.0763 C   0  0  0  0  0  0  0  0  0  0  0  0
    1.1690   -0.1536    0.1415 C   0  0  0  0  0  0  0  0  0  0  0  0
   -0.7290   -1.4854   -0.4202 C   0  0  0  0  0  0  0  0  0  0  0  0
    0.7265   -1.5891    0.0167 C   0  0  0  0  0  0  0  0  0  0  0  0
    0.9313    2.5907   -0.2750 H   0  0  0  0  0  0  0  0  0  0  0  0
    0.0118    1.7458   -1.5283 H   0  0  0  0  0  0  0  0  0  0  0  0
   -0.8416    2.6367   -0.2619 H   0  0  0  0  0  0  0  0  0  0  0  0
   -0.0265    0.9974    1.4739 H   0  0  0  0  0  0  0  0  0  0  0  0
   -1.3386   -2.2843    0.0094 H   0  0  0  0  0  0  0  0  0  0  0  0
   -0.8090   -1.4958   -1.5124 H   0  0  0  0  0  0  0  0  0  0  0  0
    0.8076   -2.0603    1.0014 H   0  0  0  0  0  0  0  0  0  0  0  0
    1.3327   -2.1330   -0.7113 H   0  0  0  0  0  0  0  0  0  0  0  0
  1  4  1  0  0  0  0
  1  9  1  0  0  0  0
  1 10  1  0  0  0  0
  1 11  1  0  0  0  0
  2  5  2  0  0  0  0
  3  6  2  0  0  0  0
  4  5  1  0  0  0  0
  4  6  1  0  0  0  0
  4 12  1  0  0  0  0
  5  7  1  0  0  0  0
  6  8  1  0  0  0  0
  7  8  1  0  0  0  0
  7 13  1  0  0  0  0
  7 14  1  0  0  0  0
  8 15  1  0  0  0  0
  8 16  1  0  0  0  0
M  END
>  <Mol_ID>
7186

>  <Formula>
C6H8O2

>  <MolWeight>
112.12652

>  <Cat>
E4186

>  <Name>
2-Methylcyclopentane-1,3-dione

>  <Synonyms>
2-Methyl-1,3-cyclopentanedione

>  <Target>
Others

>  <Form>
Free base

>  <CAS>
765-69-5

>  <URL>
https://www.selleckchem.com/products/2-methylcyclopentane-1-3-dione.html

$$$$
