2-Methoxypyrazine
 OpenBabel08302521363D

 14 14  0  0  0  0  0  0  0  0999 V2000
    0.9692   -0.0407   -0.0167 O   0  0  0  0  0  0  0  0  0  0  0  0
    0.3545   -1.3249   -0.0181 C   0  0  0  0  0  0  0  0  0  0  0  0
    2.3469   -0.0995   -0.0046 C   0  0  0  0  0  0  0  0  0  0  0  0
    3.0362    1.1064   -0.0025 C   0  0  0  0  0  0  0  0  0  0  0  0
    2.9844   -1.2924    0.0058 N   0  0  0  0  0  0  0  0  0  0  0  0
    4.3909    1.1785    0.0111 N   0  0  0  0  0  0  0  0  0  0  0  0
    4.3370   -1.2203    0.0194 C   0  0  0  0  0  0  0  0  0  0  0  0
    5.0235   -0.0158    0.0223 C   0  0  0  0  0  0  0  0  0  0  0  0
    0.6123   -1.8876   -0.9221 H   0  0  0  0  0  0  0  0  0  0  0  0
    0.6097   -1.8901    0.8850 H   0  0  0  0  0  0  0  0  0  0  0  0
   -0.7294   -1.1733   -0.0190 H   0  0  0  0  0  0  0  0  0  0  0  0
    2.5094    2.0533   -0.0112 H   0  0  0  0  0  0  0  0  0  0  0  0
    4.8627   -2.1684    0.0286 H   0  0  0  0  0  0  0  0  0  0  0  0
    6.1070    0.0201    0.0339 H   0  0  0  0  0  0  0  0  0  0  0  0
  1  2  1  0  0  0  0
  1  3  1  0  0  0  0
  2  9  1  0  0  0  0
  2 10  1  0  0  0  0
  2 11  1  0  0  0  0
  3  4  2  0  0  0  0
  3  5  1  0  0  0  0
  4  6  1  0  0  0  0
  4 12  1  0  0  0  0
  5  7  2  0  0  0  0
  6  8  2  0  0  0  0
  7  8  1  0  0  0  0
  7 13  1  0  0  0  0
  8 14  1  0  0  0  0
M  END
>  <Mol_ID>
7286

>  <Formula>
C5H6N2O

>  <MolWeight>
110.11394

>  <Cat>
E4314

>  <Name>
2-Methoxypyrazine

>  <Synonyms>
2-Methoxypyrazine

>  <Target>
Others

>  <Form>
free base

>  <CAS>
3149-28-8

>  <URL>
https://www.selleckchem.com/products/2-methoxypyrazine.html

$$$$
