2-Methylhexanoic acid
 OpenBabel08302520393D

 23 22  0  0  0  0  0  0  0  0999 V2000
    1.0572   -0.2039    0.0119 C   0  0  3  0  0  0  0  0  0  0  0  0
    2.5693   -0.3075    0.1145 C   0  0  0  0  0  0  0  0  0  0  0  0
    0.5678    1.2522    0.1137 C   0  0  0  0  0  0  0  0  0  0  0  0
    0.4424   -1.0522    1.1270 C   0  0  0  0  0  0  0  0  0  0  0  0
    3.0655   -1.4140   -0.4876 O   0  0  0  0  0  0  0  0  0  0  0  0
    3.2895    0.4889    0.6984 O   0  0  0  0  0  0  0  0  0  0  0  0
    1.0470    2.1964   -0.9993 C   0  0  0  0  0  0  0  0  0  0  0  0
    0.6906    1.7933   -2.4319 C   0  0  0  0  0  0  0  0  0  0  0  0
   -0.8041    1.7422   -2.7036 C   0  0  0  0  0  0  0  0  0  0  0  0
    0.7459   -0.6139   -0.9547 H   0  0  0  0  0  0  0  0  0  0  0  0
   -0.5293    1.2621    0.1436 H   0  0  0  0  0  0  0  0  0  0  0  0
    0.8965    1.6779    1.0715 H   0  0  0  0  0  0  0  0  0  0  0  0
   -0.6348   -1.1713    0.9719 H   0  0  0  0  0  0  0  0  0  0  0  0
    0.8903   -2.0509    1.1650 H   0  0  0  0  0  0  0  0  0  0  0  0
    0.5947   -0.5886    2.1082 H   0  0  0  0  0  0  0  0  0  0  0  0
    2.3853   -1.9868   -0.8914 H   0  0  0  0  0  0  0  0  0  0  0  0
    0.6333    3.1933   -0.8013 H   0  0  0  0  0  0  0  0  0  0  0  0
    2.1362    2.3059   -0.9354 H   0  0  0  0  0  0  0  0  0  0  0  0
    1.1376    2.5253   -3.1157 H   0  0  0  0  0  0  0  0  0  0  0  0
    1.1434    0.8275   -2.6792 H   0  0  0  0  0  0  0  0  0  0  0  0
   -1.2540    2.7358   -2.5979 H   0  0  0  0  0  0  0  0  0  0  0  0
   -0.9857    1.4012   -3.7289 H   0  0  0  0  0  0  0  0  0  0  0  0
   -1.3198    1.0545   -2.0293 H   0  0  0  0  0  0  0  0  0  0  0  0
  1  2  1  0  0  0  0
  1  3  1  0  0  0  0
  1  4  1  0  0  0  0
  1 10  1  0  0  0  0
  2  5  1  0  0  0  0
  2  6  2  0  0  0  0
  3  7  1  0  0  0  0
  3 11  1  0  0  0  0
  3 12  1  0  0  0  0
  4 13  1  0  0  0  0
  4 14  1  0  0  0  0
  4 15  1  0  0  0  0
  5 16  1  0  0  0  0
  7  8  1  0  0  0  0
  7 17  1  0  0  0  0
  7 18  1  0  0  0  0
  8  9  1  0  0  0  0
  8 19  1  0  0  0  0
  8 20  1  0  0  0  0
  9 21  1  0  0  0  0
  9 22  1  0  0  0  0
  9 23  1  0  0  0  0
M  END
>  <Mol_ID>
3552

>  <Formula>
C7H14O2

>  <MolWeight>
130.18486

>  <Cat>
S6079

>  <Name>
2-Methylhexanoic acid

>  <Synonyms>
N/A

>  <Target>
Others

>  <Form>
free base

>  <CAS>
4536-23-6

>  <URL>
http://www.selleck.cn/products/2-methylhexanoic-acid.html

$$$$
