2-Methylquinazolin-4-ol
 OpenBabel08302521363D

 20 21  0  0  0  0  0  0  0  0999 V2000
    1.0842   -0.1598    0.1704 O   0  0  0  0  0  0  0  0  0  0  0  0
    5.0578   -2.6253   -0.1310 C   0  0  0  0  0  0  0  0  0  0  0  0
    3.0346    1.1121    0.0257 C   0  0  0  0  0  0  0  0  0  0  0  0
    4.4316    1.0680   -0.0177 C   0  0  0  0  0  0  0  0  0  0  0  0
    2.3076   -0.1844    0.0777 C   0  0  0  0  0  0  0  0  0  0  0  0
    2.3531    2.3338    0.0105 C   0  0  0  0  0  0  0  0  0  0  0  0
    5.0664   -0.1727   -0.0085 N   0  0  0  0  0  0  0  0  0  0  0  0
    5.1488    2.2650   -0.0758 C   0  0  0  0  0  0  0  0  0  0  0  0
    3.0169   -1.3647    0.0056 N   0  0  0  0  0  0  0  0  0  0  0  0
    3.0773    3.5231   -0.0592 C   0  0  0  0  0  0  0  0  0  0  0  0
    4.3110   -1.3169   -0.0361 C   0  0  0  0  0  0  0  0  0  0  0  0
    4.4722    3.4879   -0.1027 C   0  0  0  0  0  0  0  0  0  0  0  0
    5.6842   -2.6189   -1.0280 H   0  0  0  0  0  0  0  0  0  0  0  0
    5.6958   -2.7454    0.7488 H   0  0  0  0  0  0  0  0  0  0  0  0
    4.3620   -3.4672   -0.1887 H   0  0  0  0  0  0  0  0  0  0  0  0
    1.2661    2.3561    0.0447 H   0  0  0  0  0  0  0  0  0  0  0  0
    6.0743   -0.2113   -0.0611 H   0  0  0  0  0  0  0  0  0  0  0  0
    6.2351    2.2609   -0.1088 H   0  0  0  0  0  0  0  0  0  0  0  0
    2.5542    4.4763   -0.0828 H   0  0  0  0  0  0  0  0  0  0  0  0
    5.0340    4.4177   -0.1607 H   0  0  0  0  0  0  0  0  0  0  0  0
  1  5  2  0  0  0  0
  2 11  1  0  0  0  0
  2 13  1  0  0  0  0
  2 14  1  0  0  0  0
  2 15  1  0  0  0  0
  3  4  2  0  0  0  0
  3  5  1  0  0  0  0
  3  6  1  0  0  0  0
  4  7  1  0  0  0  0
  4  8  1  0  0  0  0
  5  9  1  0  0  0  0
  6 10  2  0  0  0  0
  6 16  1  0  0  0  0
  7 11  1  0  0  0  0
  7 17  1  0  0  0  0
  8 12  2  0  0  0  0
  8 18  1  0  0  0  0
  9 11  2  0  0  0  0
 10 12  1  0  0  0  0
 10 19  1  0  0  0  0
 12 20  1  0  0  0  0
M  END
>  <Mol_ID>
7237

>  <Formula>
C9H8N2O

>  <MolWeight>
160.17262

>  <Cat>
E4246

>  <Name>
2-Methylquinazolin-4-ol

>  <Target>
PARP

>  <Form>
Free base

>  <CAS>
1769-24-0

>  <URL>
https://www.selleckchem.com/products/2-methylquinazolin-4-ol.html

$$$$
