2-O-Methylcytosine
 OpenBabel08302521363D

 16 16  0  0  0  0  0  0  0  0999 V2000
    1.1081   -0.1369   -0.1210 O   0  0  0  0  0  0  0  0  0  0  0  0
    0.4806    1.1372   -0.1831 C   0  0  0  0  0  0  0  0  0  0  0  0
    5.0841   -2.4328    0.3241 N   0  0  0  0  0  0  0  0  0  0  0  0
    2.4812   -0.0572   -0.0233 C   0  0  0  0  0  0  0  0  0  0  0  0
    3.1029   -1.2417    0.0689 N   0  0  0  0  0  0  0  0  0  0  0  0
    3.0825    1.1442   -0.0212 N   0  0  0  0  0  0  0  0  0  0  0  0
    4.4337   -1.2065    0.1835 C   0  0  0  0  0  0  0  0  0  0  0  0
    4.4191    1.1248    0.1072 C   0  0  0  0  0  0  0  0  0  0  0  0
    5.1503   -0.0328    0.2195 C   0  0  0  0  0  0  0  0  0  0  0  0
    0.7179    1.7501    0.6936 H   0  0  0  0  0  0  0  0  0  0  0  0
    0.7410    1.6585   -1.1104 H   0  0  0  0  0  0  0  0  0  0  0  0
   -0.6022    0.9753   -0.1854 H   0  0  0  0  0  0  0  0  0  0  0  0
    4.3816   -3.1613    0.2174 H   0  0  0  0  0  0  0  0  0  0  0  0
    5.8465   -2.5430   -0.3336 H   0  0  0  0  0  0  0  0  0  0  0  0
    4.9002    2.0970    0.1269 H   0  0  0  0  0  0  0  0  0  0  0  0
    6.2243   -0.0177    0.3420 H   0  0  0  0  0  0  0  0  0  0  0  0
  1  2  1  0  0  0  0
  1  4  1  0  0  0  0
  2 10  1  0  0  0  0
  2 11  1  0  0  0  0
  2 12  1  0  0  0  0
  3  7  1  0  0  0  0
  3 13  1  0  0  0  0
  3 14  1  0  0  0  0
  4  5  2  0  0  0  0
  4  6  1  0  0  0  0
  5  7  1  0  0  0  0
  6  8  2  0  0  0  0
  7  9  2  0  0  0  0
  8  9  1  0  0  0  0
  8 15  1  0  0  0  0
  9 16  1  0  0  0  0
M  END
>  <Mol_ID>
7049

>  <Formula>
C5H7N3O

>  <MolWeight>
125.12858

>  <Cat>
E4057

>  <Name>
2-O-Methylcytosine

>  <Synonyms>
2-O-Methylcytosine

>  <Target>
Others

>  <Form>
Free base

>  <CAS>
3289-47-2

>  <URL>
https://www.selleckchem.com/products/2-o-methylcytosine.html

$$$$
