2-Phenylacetamide
 OpenBabel08302521303D

 19 19  0  0  0  0  0  0  0  0999 V2000
    5.0186   -0.2184    1.0717 O   0  0  0  0  0  0  0  0  0  0  0  0
    4.8129    0.8372   -0.9014 N   0  0  0  0  0  0  0  0  0  0  0  0
    2.7046    2.4792    0.2704 C   0  0  0  0  0  0  0  0  0  0  0  0
    3.0084    1.0786    0.7527 C   0  0  0  0  0  0  0  0  0  0  0  0
    1.6010    2.7224   -0.5597 C   0  0  0  0  0  0  0  0  0  0  0  0
    3.5075    3.5590    0.6663 C   0  0  0  0  0  0  0  0  0  0  0  0
    1.3105    4.0188   -0.9874 C   0  0  0  0  0  0  0  0  0  0  0  0
    3.2167    4.8536    0.2336 C   0  0  0  0  0  0  0  0  0  0  0  0
    4.3667    0.5329    0.3521 C   0  0  0  0  0  0  0  0  0  0  0  0
    2.1180    5.0834   -0.5919 C   0  0  0  0  0  0  0  0  0  0  0  0
    4.4069    1.5909   -1.4416 H   0  0  0  0  0  0  0  0  0  0  0  0
    5.7425    0.5214   -1.1475 H   0  0  0  0  0  0  0  0  0  0  0  0
    2.2542    0.3712    0.3873 H   0  0  0  0  0  0  0  0  0  0  0  0
    2.9480    1.0767    1.8482 H   0  0  0  0  0  0  0  0  0  0  0  0
    0.9529    1.9063   -0.8721 H   0  0  0  0  0  0  0  0  0  0  0  0
    4.3637    3.3985    1.3185 H   0  0  0  0  0  0  0  0  0  0  0  0
    0.4477    4.2005   -1.6242 H   0  0  0  0  0  0  0  0  0  0  0  0
    3.8435    5.6845    0.5472 H   0  0  0  0  0  0  0  0  0  0  0  0
    1.8863    6.0934   -0.9201 H   0  0  0  0  0  0  0  0  0  0  0  0
  1  9  2  0  0  0  0
  2  9  1  0  0  0  0
  2 11  1  0  0  0  0
  2 12  1  0  0  0  0
  3  4  1  0  0  0  0
  3  5  2  0  0  0  0
  3  6  1  0  0  0  0
  4  9  1  0  0  0  0
  4 13  1  0  0  0  0
  4 14  1  0  0  0  0
  5  7  1  0  0  0  0
  5 15  1  0  0  0  0
  6  8  2  0  0  0  0
  6 16  1  0  0  0  0
  7 10  2  0  0  0  0
  7 17  1  0  0  0  0
  8 10  1  0  0  0  0
  8 18  1  0  0  0  0
 10 19  1  0  0  0  0
M  END
>  <Mol_ID>
5666

>  <Formula>
C8H9NO

>  <MolWeight>
135.16316

>  <Cat>
S4440

>  <Name>
2-Phenylacetamide

>  <Synonyms>
N/A

>  <Target>
Estrogen/progestogen Receptor,GPR

>  <Form>
Free Base

>  <CAS>
103-81-1

>  <URL>
http://www.selleckchem.com/products/2-phenylacetamide.html

$$$$
