2-Picolinic acid methyl ester
 OpenBabel08302520393D

 17 17  0  0  0  0  0  0  0  0999 V2000
   -0.7028    1.1669   -0.0010 C   0  0  0  0  0  0  0  0  0  0  0  0
   -1.4949    2.4359   -0.0072 C   0  0  0  0  0  0  0  0  0  0  0  0
    0.6870    1.2610   -0.0002 C   0  0  0  0  0  0  0  0  0  0  0  0
   -1.3668   -0.0199    0.0030 N   0  0  0  0  0  0  0  0  0  0  0  0
   -2.8314    2.1927   -0.0029 O   0  0  0  0  0  0  0  0  0  0  0  0
   -0.9778    3.5448   -0.0150 O   0  0  0  0  0  0  0  0  0  0  0  0
    1.4352    0.0879    0.0047 C   0  0  0  0  0  0  0  0  0  0  0  0
   -0.6097   -1.1395    0.0077 C   0  0  0  0  0  0  0  0  0  0  0  0
   -3.6303    3.3765   -0.0088 C   0  0  0  0  0  0  0  0  0  0  0  0
    0.7771   -1.1366    0.0086 C   0  0  0  0  0  0  0  0  0  0  0  0
    1.1789    2.2291   -0.0033 H   0  0  0  0  0  0  0  0  0  0  0  0
    2.5211    0.1306    0.0053 H   0  0  0  0  0  0  0  0  0  0  0  0
   -1.1638   -2.0744    0.0108 H   0  0  0  0  0  0  0  0  0  0  0  0
   -3.4331    3.9784    0.8845 H   0  0  0  0  0  0  0  0  0  0  0  0
   -3.4434    3.9616   -0.9154 H   0  0  0  0  0  0  0  0  0  0  0  0
   -4.6832    3.0816    0.0001 H   0  0  0  0  0  0  0  0  0  0  0  0
    1.3328   -2.0684    0.0123 H   0  0  0  0  0  0  0  0  0  0  0  0
  1  2  1  0  0  0  0
  1  3  2  0  0  0  0
  1  4  1  0  0  0  0
  2  5  1  0  0  0  0
  2  6  2  0  0  0  0
  3  7  1  0  0  0  0
  3 11  1  0  0  0  0
  4  8  2  0  0  0  0
  5  9  1  0  0  0  0
  7 10  2  0  0  0  0
  7 12  1  0  0  0  0
  8 10  1  0  0  0  0
  8 13  1  0  0  0  0
  9 14  1  0  0  0  0
  9 15  1  0  0  0  0
  9 16  1  0  0  0  0
 10 17  1  0  0  0  0
M  END
>  <Mol_ID>
3657

>  <Formula>
C7H7NO2

>  <MolWeight>
137.13598

>  <Cat>
S6317

>  <Name>
2-Picolinic acid methyl ester

>  <Synonyms>
Methyl picolinate, 2-Pyridinecarboxylic acid methyl ester, Methyl pyridine-2-carboxylate, 2-Carbomethoxypyridine

>  <Target>
Others

>  <Form>
free base

>  <CAS>
2459-07-6

>  <URL>
http://www.selleck.cn/products/2-picolinic-acid-methyl-ester.html

$$$$
