3,4-(Methylenedioxy)cinnamic acid
 OpenBabel08302521363D

 22 23  0  0  0  0  0  0  0  0999 V2000
    0.8448    0.1020   -0.0211 C   0  0  0  0  0  0  0  0  0  0  0  0
    0.4690   -1.1529    0.2775 C   0  0  0  0  0  0  0  0  0  0  0  0
   -0.6241   -1.9088   -0.3823 C   0  0  0  0  0  0  0  0  0  0  0  0
   -1.0301   -2.9494    0.3775 O   0  0  0  0  0  0  0  0  0  0  0  0
   -1.0982   -1.6723   -1.4755 O   0  0  0  0  0  0  0  0  0  0  0  0
   -1.5056    2.4474   -1.7067 C   0  0  0  0  0  0  0  0  0  0  0  0
   -1.0900    2.3568   -3.0148 C   0  0  0  0  0  0  0  0  0  0  0  0
   -0.8657    1.7705   -0.6895 C   0  0  0  0  0  0  0  0  0  0  0  0
   -2.6055    3.2361   -1.5662 O   0  0  0  0  0  0  0  0  0  0  0  0
    0.0061    1.6055   -3.3776 C   0  0  0  0  0  0  0  0  0  0  0  0
   -1.8854    3.0629   -3.8623 O   0  0  0  0  0  0  0  0  0  0  0  0
    0.2184    0.9531   -1.0343 C   0  0  0  0  0  0  0  0  0  0  0  0
   -2.8819    3.5587   -2.9452 C   0  0  0  0  0  0  0  0  0  0  0  0
    0.6670    0.8946   -2.3710 C   0  0  0  0  0  0  0  0  0  0  0  0
    1.6727    0.5603    0.5142 H   0  0  0  0  0  0  0  0  0  0  0  0
    1.0175   -1.6779    1.0522 H   0  0  0  0  0  0  0  0  0  0  0  0
   -0.6228   -3.0139    1.2599 H   0  0  0  0  0  0  0  0  0  0  0  0
   -1.2252    1.8472    0.3300 H   0  0  0  0  0  0  0  0  0  0  0  0
    0.3221    1.5386   -4.4118 H   0  0  0  0  0  0  0  0  0  0  0  0
   -3.8561    3.1335   -3.2160 H   0  0  0  0  0  0  0  0  0  0  0  0
   -2.9349    4.6484   -3.0465 H   0  0  0  0  0  0  0  0  0  0  0  0
    1.5084    0.2592   -2.6374 H   0  0  0  0  0  0  0  0  0  0  0  0
  1  2  2  3  0  0  0
  1 12  1  0  0  0  0
  1 15  1  0  0  0  0
  2  3  1  0  0  0  0
  2 16  1  0  0  0  0
  3  4  1  0  0  0  0
  3  5  2  0  0  0  0
  4 17  1  0  0  0  0
  6  7  1  0  0  0  0
  6  8  2  0  0  0  0
  6  9  1  0  0  0  0
  7 10  2  0  0  0  0
  7 11  1  0  0  0  0
  8 12  1  0  0  0  0
  8 18  1  0  0  0  0
  9 13  1  0  0  0  0
 10 14  1  0  0  0  0
 10 19  1  0  0  0  0
 11 13  1  0  0  0  0
 12 14  2  0  0  0  0
 13 20  1  0  0  0  0
 13 21  1  0  0  0  0
 14 22  1  0  0  0  0
M  END
>  <Mol_ID>
7276

>  <Formula>
C10H8O4

>  <MolWeight>
192.16812

>  <Cat>
E4297

>  <Name>
3,4-(Methylenedioxy)cinnamic acid

>  <Synonyms>
3,4-(Methylenedioxy)cinnamic acid

>  <Target>
Others

>  <Form>
free base

>  <CAS>
2373-80-0

>  <URL>
https://www.selleckchem.com/products/3-4-methylenedioxy-cinnamic-acid.html

$$$$
