3,5-Dimethoxyphenol
 OpenBabel08302520393D

 21 21  0  0  0  0  0  0  0  0999 V2000
    0.9007   -0.0398    0.0092 C   0  0  0  0  0  0  0  0  0  0  0  0
    0.1743   -1.2356    0.0066 C   0  0  0  0  0  0  0  0  0  0  0  0
    0.2195    1.1768    0.0065 C   0  0  0  0  0  0  0  0  0  0  0  0
    2.2660    0.0624    0.0160 O   0  0  0  0  0  0  0  0  0  0  0  0
   -1.2245   -1.2135   -0.0021 C   0  0  0  0  0  0  0  0  0  0  0  0
   -1.1698    1.1964   -0.0019 C   0  0  0  0  0  0  0  0  0  0  0  0
    3.0024   -1.1548    0.0216 C   0  0  0  0  0  0  0  0  0  0  0  0
   -1.8969    0.0112   -0.0071 C   0  0  0  0  0  0  0  0  0  0  0  0
   -2.0385   -2.3153   -0.0068 O   0  0  0  0  0  0  0  0  0  0  0  0
   -1.7909    2.4113   -0.0054 O   0  0  0  0  0  0  0  0  0  0  0  0
   -1.3967   -3.5857   -0.0037 C   0  0  0  0  0  0  0  0  0  0  0  0
    0.6978   -2.1816    0.0118 H   0  0  0  0  0  0  0  0  0  0  0  0
    0.7735    2.1125    0.0105 H   0  0  0  0  0  0  0  0  0  0  0  0
    2.8073   -1.7276    0.9345 H   0  0  0  0  0  0  0  0  0  0  0  0
    2.7882   -1.7507   -0.8720 H   0  0  0  0  0  0  0  0  0  0  0  0
    4.0673   -0.9047    0.0059 H   0  0  0  0  0  0  0  0  0  0  0  0
   -2.9823    0.0185   -0.0142 H   0  0  0  0  0  0  0  0  0  0  0  0
   -2.7518    2.2685   -0.0121 H   0  0  0  0  0  0  0  0  0  0  0  0
   -0.7894   -3.7223   -0.9049 H   0  0  0  0  0  0  0  0  0  0  0  0
   -0.7959   -3.7216    0.9020 H   0  0  0  0  0  0  0  0  0  0  0  0
   -2.1733   -4.3560   -0.0060 H   0  0  0  0  0  0  0  0  0  0  0  0
  1  2  2  0  0  0  0
  1  3  1  0  0  0  0
  1  4  1  0  0  0  0
  2  5  1  0  0  0  0
  2 12  1  0  0  0  0
  3  6  2  0  0  0  0
  3 13  1  0  0  0  0
  4  7  1  0  0  0  0
  5  8  2  0  0  0  0
  5  9  1  0  0  0  0
  6 10  1  0  0  0  0
  6  8  1  0  0  0  0
  7 14  1  0  0  0  0
  7 15  1  0  0  0  0
  7 16  1  0  0  0  0
  8 17  1  0  0  0  0
  9 11  1  0  0  0  0
 10 18  1  0  0  0  0
 11 19  1  0  0  0  0
 11 20  1  0  0  0  0
 11 21  1  0  0  0  0
M  END
>  <Mol_ID>
3547

>  <Formula>
C8H10O3

>  <MolWeight>
154.1632

>  <Cat>
S6071

>  <Name>
3,5-Dimethoxyphenol

>  <Synonyms>
Phloroglucinol dimethyl ether

>  <Target>
Others

>  <Form>
free base

>  <CAS>
500-99-2

>  <URL>
http://www.selleck.cn/products/3-5-dimethoxyphenol.html

$$$$
