3-Acetylcoumarin
 OpenBabel08302521363D

 22 23  0  0  0  0  0  0  0  0999 V2000
    0.9779   -0.0793    0.0879 C   0  0  0  0  0  0  0  0  0  0  0  0
    0.1476    1.1107   -0.3294 C   0  0  0  0  0  0  0  0  0  0  0  0
    0.4078   -1.1259    0.4130 O   0  0  0  0  0  0  0  0  0  0  0  0
    2.7003    2.3311    0.3243 O   0  0  0  0  0  0  0  0  0  0  0  0
    4.5771   -1.2434   -0.0617 C   0  0  0  0  0  0  0  0  0  0  0  0
    5.2760   -0.0461   -0.1751 C   0  0  0  0  0  0  0  0  0  0  0  0
    3.1245   -1.1956    0.0122 C   0  0  0  0  0  0  0  0  0  0  0  0
    5.2969   -2.4404   -0.0521 C   0  0  0  0  0  0  0  0  0  0  0  0
    4.6025    1.1842   -0.1421 O   0  0  0  0  0  0  0  0  0  0  0  0
    6.6623   -0.0094   -0.2951 C   0  0  0  0  0  0  0  0  0  0  0  0
    2.4757   -0.0185    0.0597 C   0  0  0  0  0  0  0  0  0  0  0  0
    6.6930   -2.4197   -0.1618 C   0  0  0  0  0  0  0  0  0  0  0  0
    3.2308    1.2525    0.0956 C   0  0  0  0  0  0  0  0  0  0  0  0
    7.3736   -1.2066   -0.2888 C   0  0  0  0  0  0  0  0  0  0  0  0
   -0.5317    0.7995   -1.1294 H   0  0  0  0  0  0  0  0  0  0  0  0
   -0.4337    1.4590    0.5288 H   0  0  0  0  0  0  0  0  0  0  0  0
    0.7300    1.9393   -0.7264 H   0  0  0  0  0  0  0  0  0  0  0  0
    2.5918   -2.1431    0.0114 H   0  0  0  0  0  0  0  0  0  0  0  0
    4.7885   -3.3967    0.0433 H   0  0  0  0  0  0  0  0  0  0  0  0
    7.1815    0.9396   -0.3838 H   0  0  0  0  0  0  0  0  0  0  0  0
    7.2525   -3.3530   -0.1494 H   0  0  0  0  0  0  0  0  0  0  0  0
    8.4577   -1.1951   -0.3776 H   0  0  0  0  0  0  0  0  0  0  0  0
  1  2  1  0  0  0  0
  1  3  2  0  0  0  0
  1 11  1  0  0  0  0
  2 15  1  0  0  0  0
  2 16  1  0  0  0  0
  2 17  1  0  0  0  0
  4 13  2  0  0  0  0
  5  6  2  0  0  0  0
  5  7  1  0  0  0  0
  5  8  1  0  0  0  0
  6  9  1  0  0  0  0
  6 10  1  0  0  0  0
  7 11  2  0  0  0  0
  7 18  1  0  0  0  0
  8 12  2  0  0  0  0
  8 19  1  0  0  0  0
  9 13  1  0  0  0  0
 10 14  2  0  0  0  0
 10 20  1  0  0  0  0
 11 13  1  0  0  0  0
 12 14  1  0  0  0  0
 12 21  1  0  0  0  0
 14 22  1  0  0  0  0
M  END
>  <Mol_ID>
7319

>  <Formula>
C11H8O3

>  <MolWeight>
188.17942

>  <Cat>
E4357

>  <Name>
3-Acetylcoumarin

>  <Synonyms>
3-Acetylcoumarin

>  <Target>
Others

>  <Form>
free base

>  <CAS>
3949-36-8

>  <URL>
https://www.selleckchem.com/products/3-acetylcoumarin.html

$$$$
