3-Benzoylpropionic acid
 OpenBabel08302521383D

 23 23  0  0  0  0  0  0  0  0999 V2000
    0.9923   -0.0528   -0.0920 C   0  0  0  0  0  0  0  0  0  0  0  0
    0.1510   -1.3059    0.0351 C   0  0  0  0  0  0  0  0  0  0  0  0
    0.4614    1.0118   -0.4100 O   0  0  0  0  0  0  0  0  0  0  0  0
   -0.4510   -1.5087    1.4131 C   0  0  0  0  0  0  0  0  0  0  0  0
   -1.3363   -0.3844    1.8906 C   0  0  0  0  0  0  0  0  0  0  0  0
   -2.4358   -0.1804    1.1383 O   0  0  0  0  0  0  0  0  0  0  0  0
   -1.1301    0.2296    2.9298 O   0  0  0  0  0  0  0  0  0  0  0  0
    2.4739   -0.1156    0.0756 C   0  0  0  0  0  0  0  0  0  0  0  0
    3.2491    0.8232   -0.6219 C   0  0  0  0  0  0  0  0  0  0  0  0
    3.1124   -1.0575    0.8900 C   0  0  0  0  0  0  0  0  0  0  0  0
    4.6420    0.8110   -0.5243 C   0  0  0  0  0  0  0  0  0  0  0  0
    4.5095   -1.0587    0.9950 C   0  0  0  0  0  0  0  0  0  0  0  0
    5.2719   -0.1305    0.2857 C   0  0  0  0  0  0  0  0  0  0  0  0
   -0.6441   -1.2266   -0.7186 H   0  0  0  0  0  0  0  0  0  0  0  0
    0.7411   -2.1807   -0.2595 H   0  0  0  0  0  0  0  0  0  0  0  0
   -1.0466   -2.4294    1.4326 H   0  0  0  0  0  0  0  0  0  0  0  0
    0.3422   -1.6371    2.1568 H   0  0  0  0  0  0  0  0  0  0  0  0
   -2.5021   -0.7349    0.3395 H   0  0  0  0  0  0  0  0  0  0  0  0
    2.7674    1.5681   -1.2546 H   0  0  0  0  0  0  0  0  0  0  0  0
    2.5532   -1.7858    1.4677 H   0  0  0  0  0  0  0  0  0  0  0  0
    5.2311    1.5374   -1.0779 H   0  0  0  0  0  0  0  0  0  0  0  0
    5.0084   -1.7833    1.6364 H   0  0  0  0  0  0  0  0  0  0  0  0
    6.3564   -0.1368    0.3674 H   0  0  0  0  0  0  0  0  0  0  0  0
  1  2  1  0  0  0  0
  1  3  2  0  0  0  0
  1  8  1  0  0  0  0
  2  4  1  0  0  0  0
  2 14  1  0  0  0  0
  2 15  1  0  0  0  0
  4  5  1  0  0  0  0
  4 16  1  0  0  0  0
  4 17  1  0  0  0  0
  5  6  1  0  0  0  0
  5  7  2  0  0  0  0
  6 18  1  0  0  0  0
  8  9  2  0  0  0  0
  8 10  1  0  0  0  0
  9 11  1  0  0  0  0
  9 19  1  0  0  0  0
 10 12  2  0  0  0  0
 10 20  1  0  0  0  0
 11 13  2  0  0  0  0
 11 21  1  0  0  0  0
 12 13  1  0  0  0  0
 12 22  1  0  0  0  0
 13 23  1  0  0  0  0
M  END
>  <Mol_ID>
7662

>  <Formula>
C10H10O3

>  <MolWeight>
178.1846

>  <Cat>
E4445

>  <Name>
3-Benzoylpropionic acid

>  <Target>
Others

>  <Form>
free base

>  <CAS>
2051-95-8

>  <URL>
https://www.selleckchem.com/products/3-benzoylpropionic-acid.html

$$$$
