(3-Carboxypropyl)trimethylammonium chloride
 OpenBabel08302521303D

 26 25  0  0  0  0  0  0  0  0999 V2000
    1.0140    0.0714   -0.0769 C   0  0  0  0  0  0  0  0  0  0  0  0
    0.4778   -1.3181    0.2566 N   0  3  0  0  0  0  0  0  0  0  0  0
    0.8872   -1.7406    1.6801 C   0  0  0  0  0  0  0  0  0  0  0  0
    0.4333   -0.8594    2.8519 C   0  0  0  0  0  0  0  0  0  0  0  0
   -1.0648   -0.6661    3.0903 C   0  0  0  0  0  0  0  0  0  0  0  0
   -1.3200    0.2042    4.3011 C   0  0  0  0  0  0  0  0  0  0  0  0
   -2.5097   -0.0393    4.8921 O   0  0  0  0  0  0  0  0  0  0  0  0
   -0.5698    1.0895    4.6580 O   0  0  0  0  0  0  0  0  0  0  0  0
   -1.0163   -1.3707   -0.0170 C   0  0  0  0  0  0  0  0  0  0  0  0
    1.1199   -2.3286   -0.7143 C   0  0  0  0  0  0  0  0  0  0  0  0
    0.5626    0.7944    0.6064 H   0  0  0  0  0  0  0  0  0  0  0  0
    0.7367    0.3084   -1.1088 H   0  0  0  0  0  0  0  0  0  0  0  0
    2.1023    0.0592    0.0325 H   0  0  0  0  0  0  0  0  0  0  0  0
    0.5664   -2.7794    1.8171 H   0  0  0  0  0  0  0  0  0  0  0  0
    1.9869   -1.7395    1.6780 H   0  0  0  0  0  0  0  0  0  0  0  0
    0.8451   -1.3211    3.7621 H   0  0  0  0  0  0  0  0  0  0  0  0
    0.9287    0.1153    2.7836 H   0  0  0  0  0  0  0  0  0  0  0  0
   -1.5265   -0.1221    2.2715 H   0  0  0  0  0  0  0  0  0  0  0  0
   -1.5602   -1.6319    3.2148 H   0  0  0  0  0  0  0  0  0  0  0  0
   -3.0519   -0.7551    4.5203 H   0  0  0  0  0  0  0  0  0  0  0  0
   -1.1801   -1.2733   -1.0948 H   0  0  0  0  0  0  0  0  0  0  0  0
   -1.4077   -2.3234    0.3492 H   0  0  0  0  0  0  0  0  0  0  0  0
   -1.5039   -0.5215    0.4505 H   0  0  0  0  0  0  0  0  0  0  0  0
    0.8449   -2.0518   -1.7368 H   0  0  0  0  0  0  0  0  0  0  0  0
    2.2053   -2.2963   -0.5871 H   0  0  0  0  0  0  0  0  0  0  0  0
    0.7302   -3.3230   -0.4737 H   0  0  0  0  0  0  0  0  0  0  0  0
  1  2  1  0  0  0  0
  1 11  1  0  0  0  0
  1 12  1  0  0  0  0
  1 13  1  0  0  0  0
  2  3  1  0  0  0  0
  2  9  1  0  0  0  0
  2 10  1  0  0  0  0
  3  4  1  0  0  0  0
  3 14  1  0  0  0  0
  3 15  1  0  0  0  0
  4  5  1  0  0  0  0
  4 16  1  0  0  0  0
  4 17  1  0  0  0  0
  5  6  1  0  0  0  0
  5 18  1  0  0  0  0
  5 19  1  0  0  0  0
  6  7  1  0  0  0  0
  6  8  2  0  0  0  0
  7 20  1  0  0  0  0
  9 21  1  0  0  0  0
  9 22  1  0  0  0  0
  9 23  1  0  0  0  0
 10 24  1  0  0  0  0
 10 25  1  0  0  0  0
 10 26  1  0  0  0  0
M  CHG  1   2   1
M  END
>  <Mol_ID>
5513

>  <Formula>
C7H16ClNO2

>  <MolWeight>
181.66044

>  <Cat>
S3361

>  <Name>
(3-Carboxypropyl)trimethylammonium chloride

>  <Synonyms>
¦Ã-Butyrobetaine hydrochloride, ¦ÃBB hydrochloride

>  <Target>
Others

>  <Form>
Chloride

>  <CAS>
6249-56-5

>  <URL>
https://www.selleckchem.com/products/3-carboxypropyl-trimethylammonium-chloride.html

$$$$
