3-Chloro-L-tyrosine
 OpenBabel08302521383D

 24 24  0  0  0  0  0  0  0  0999 V2000
    0.9448    0.0304   -0.1475 C   0  0  0  0  0  0  0  0  0  0  0  0
   -0.7002    1.7768    0.3621 N   0  0  0  0  0  0  0  0  0  0  0  0
    0.1946    0.7484    0.9875 C   0  0  1  0  0  0  0  0  0  0  0  0
   -0.6530   -0.2471    1.7952 C   0  0  0  0  0  0  0  0  0  0  0  0
    0.1383   -1.3304    2.4876 C   0  0  0  0  0  0  0  0  0  0  0  0
    1.1066   -1.0153    3.4531 C   0  0  0  0  0  0  0  0  0  0  0  0
    1.8436   -2.0266    4.0740 C   0  0  0  0  0  0  0  0  0  0  0  0
    1.6019   -3.3555    3.7421 C   0  0  0  0  0  0  0  0  0  0  0  0
    2.2944   -4.3727    4.3290 O   0  0  0  0  0  0  0  0  0  0  0  0
    0.6397   -3.6875    2.7983 C   0  0  0  0  0  0  0  0  0  0  0  0
   -0.0911   -2.6779    2.1712 C   0  0  0  0  0  0  0  0  0  0  0  0
    2.0368   -0.5043   -0.0504 O   0  0  0  0  0  0  0  0  0  0  0  0
    0.2362    0.0793   -1.3074 O   0  0  0  0  0  0  0  0  0  0  0  0
   -1.2229    2.2397    1.1111 H   0  0  0  0  0  0  0  0  0  0  0  0
   -0.1001    2.5160   -0.0213 H   0  0  0  0  0  0  0  0  0  0  0  0
    0.9261    1.2715    1.6120 H   0  0  0  0  0  0  0  0  0  0  0  0
   -1.2251    0.2893    2.5649 H   0  0  0  0  0  0  0  0  0  0  0  0
   -1.3999   -0.7101    1.1356 H   0  0  0  0  0  0  0  0  0  0  0  0
    1.3048    0.0185    3.7225 H   0  0  0  0  0  0  0  0  0  0  0  0
    2.5984   -1.7596    4.8068 H   0  0  0  0  0  0  0  0  0  0  0  0
    2.9546   -3.9895    4.9282 H   0  0  0  0  0  0  0  0  0  0  0  0
    0.4639   -4.7286    2.5437 H   0  0  0  0  0  0  0  0  0  0  0  0
   -0.8331   -2.9555    1.4260 H   0  0  0  0  0  0  0  0  0  0  0  0
   -0.5639    0.6284   -1.1212 H   0  0  0  0  0  0  0  0  0  0  0  0
  1  3  1  0  0  0  0
  1 12  2  0  0  0  0
  1 13  1  0  0  0  0
  2 14  1  0  0  0  0
  2 15  1  0  0  0  0
  3  2  1  0  0  0  0
  3  4  1  0  0  0  0
  3 16  1  1  0  0  0
  4  5  1  0  0  0  0
  4 17  1  0  0  0  0
  4 18  1  0  0  0  0
  5  6  2  0  0  0  0
  5 11  1  0  0  0  0
  6  7  1  0  0  0  0
  6 19  1  0  0  0  0
  7  8  2  0  0  0  0
  7 20  1  0  0  0  0
  8  9  1  0  0  0  0
  8 10  1  0  0  0  0
  9 21  1  0  0  0  0
 10 11  2  0  0  0  0
 10 22  1  0  0  0  0
 11 23  1  0  0  0  0
 13 24  1  0  0  0  0
M  END
>  <Mol_ID>
7900

>  <Formula>
C9H10ClNO3

>  <MolWeight>
215.6336

>  <Cat>
S6106

>  <Name>
3-Chloro-L-tyrosine

>  <Synonyms>
N/A

>  <Target>
Peroxidases

>  <Form>
free base

>  <CAS>
7423-93-0

>  <URL>
http://www.selleck.cn/products/3-chloro-l-tyrosine.html

$$$$
