3-Furanmethanol
 OpenBabel08302521363D

 13 13  0  0  0  0  0  0  0  0999 V2000
    1.0022   -0.0565   -0.0787 C   0  0  0  0  0  0  0  0  0  0  0  0
    0.8372   -1.4648    0.0465 O   0  0  0  0  0  0  0  0  0  0  0  0
    0.5734    0.4366   -1.4115 C   0  0  0  0  0  0  0  0  0  0  0  0
    0.0393   -0.3166   -2.4965 C   0  0  0  0  0  0  0  0  0  0  0  0
    0.6107    1.7413   -1.8624 C   0  0  0  0  0  0  0  0  0  0  0  0
   -0.1942    0.5728   -3.5173 C   0  0  0  0  0  0  0  0  0  0  0  0
    0.1499    1.8289   -3.1362 O   0  0  0  0  0  0  0  0  0  0  0  0
    2.0596    0.1779    0.0840 H   0  0  0  0  0  0  0  0  0  0  0  0
    0.4119    0.4269    0.7071 H   0  0  0  0  0  0  0  0  0  0  0  0
    1.1328   -1.6990    0.9416 H   0  0  0  0  0  0  0  0  0  0  0  0
   -0.1451   -1.3824   -2.5192 H   0  0  0  0  0  0  0  0  0  0  0  0
    0.9244    2.6767   -1.4199 H   0  0  0  0  0  0  0  0  0  0  0  0
   -0.5815    0.4761   -4.5213 H   0  0  0  0  0  0  0  0  0  0  0  0
  1  2  1  0  0  0  0
  1  3  1  0  0  0  0
  1  8  1  0  0  0  0
  1  9  1  0  0  0  0
  2 10  1  0  0  0  0
  3  4  1  0  0  0  0
  3  5  2  0  0  0  0
  4  6  2  0  0  0  0
  4 11  1  0  0  0  0
  5  7  1  0  0  0  0
  5 12  1  0  0  0  0
  6  7  1  0  0  0  0
  6 13  1  0  0  0  0
M  END
>  <Mol_ID>
7160

>  <Formula>
C5H6O2

>  <MolWeight>
98.09994

>  <Cat>
E4151

>  <Name>
3-Furanmethanol

>  <Synonyms>
Furan-3-methanol

>  <Target>
Others

>  <Form>
Free base

>  <CAS>
4412-91-3

>  <URL>
https://www.selleckchem.com/products/3-furanmethanol.html

$$$$
