3-Hydroxycoumarin
 OpenBabel08302521373D

 18 19  0  0  0  0  0  0  0  0999 V2000
    1.1654   -0.2004    0.2193 O   0  0  0  0  0  0  0  0  0  0  0  0
    1.9897    2.2966   -0.5613 O   0  0  0  0  0  0  0  0  0  0  0  0
   -1.2734    2.0462    1.8486 C   0  0  0  0  0  0  0  0  0  0  0  0
   -0.8163    3.2859    1.4039 C   0  0  0  0  0  0  0  0  0  0  0  0
   -0.5684    0.8432    1.4385 C   0  0  0  0  0  0  0  0  0  0  0  0
   -2.4098    1.9956    2.6581 C   0  0  0  0  0  0  0  0  0  0  0  0
    0.3243    3.3916    0.5853 O   0  0  0  0  0  0  0  0  0  0  0  0
   -1.4729    4.4686    1.7383 C   0  0  0  0  0  0  0  0  0  0  0  0
    0.4960    0.9395    0.6400 C   0  0  0  0  0  0  0  0  0  0  0  0
   -3.0834    3.1746    2.9927 C   0  0  0  0  0  0  0  0  0  0  0  0
    1.0027    2.2575    0.1704 C   0  0  0  0  0  0  0  0  0  0  0  0
   -2.6186    4.4079    2.5300 C   0  0  0  0  0  0  0  0  0  0  0  0
    1.8925    0.1241   -0.3533 H   0  0  0  0  0  0  0  0  0  0  0  0
   -0.9287   -0.1243    1.7705 H   0  0  0  0  0  0  0  0  0  0  0  0
   -2.7872    1.0451    3.0274 H   0  0  0  0  0  0  0  0  0  0  0  0
   -1.1029    5.4245    1.3792 H   0  0  0  0  0  0  0  0  0  0  0  0
   -3.9771    3.1302    3.6111 H   0  0  0  0  0  0  0  0  0  0  0  0
   -3.1523    5.3203    2.7852 H   0  0  0  0  0  0  0  0  0  0  0  0
  1  9  1  0  0  0  0
  1 13  1  0  0  0  0
  2 11  2  0  0  0  0
  3  4  2  0  0  0  0
  3  5  1  0  0  0  0
  3  6  1  0  0  0  0
  4  7  1  0  0  0  0
  4  8  1  0  0  0  0
  5  9  2  0  0  0  0
  5 14  1  0  0  0  0
  6 10  2  0  0  0  0
  6 15  1  0  0  0  0
  7 11  1  0  0  0  0
  8 12  2  0  0  0  0
  8 16  1  0  0  0  0
  9 11  1  0  0  0  0
 10 12  1  0  0  0  0
 10 17  1  0  0  0  0
 12 18  1  0  0  0  0
M  END
>  <Mol_ID>
7447

>  <Formula>
C9H6O3

>  <MolWeight>
162.14214

>  <Cat>
E4550

>  <Name>
3-Hydroxycoumarin

>  <Synonyms>
3-Hydroxycoumarin

>  <Target>
Lipoxygenase

>  <Form>
Free base

>  <CAS>
939-19-5

>  <URL>
https://www.selleckchem.com/products/3-hydroxycoumarin.html

$$$$
