3-Hydroxyisovaleric acid
 OpenBabel08302520393D

 18 17  0  0  0  0  0  0  0  0999 V2000
    0.9126   -0.0140   -0.0612 C   0  0  0  0  0  0  0  0  0  0  0  0
    0.4644   -1.4746    0.0544 C   0  0  0  0  0  0  0  0  0  0  0  0
    0.4388    0.7932    1.1519 C   0  0  0  0  0  0  0  0  0  0  0  0
    0.4035    0.6486   -1.3443 C   0  0  0  0  0  0  0  0  0  0  0  0
    2.3507   -0.0025   -0.0882 O   0  0  0  0  0  0  0  0  0  0  0  0
    0.9146   -2.3673   -1.0830 C   0  0  0  0  0  0  0  0  0  0  0  0
    2.1446   -2.0931   -1.5716 O   0  0  0  0  0  0  0  0  0  0  0  0
    0.2569   -3.3197   -1.4755 O   0  0  0  0  0  0  0  0  0  0  0  0
    0.8632   -1.9233    0.9725 H   0  0  0  0  0  0  0  0  0  0  0  0
   -0.6306   -1.5212    0.0980 H   0  0  0  0  0  0  0  0  0  0  0  0
    0.8084    1.8239    1.0999 H   0  0  0  0  0  0  0  0  0  0  0  0
   -0.6539    0.8195    1.2163 H   0  0  0  0  0  0  0  0  0  0  0  0
    0.8301    0.3710    2.0843 H   0  0  0  0  0  0  0  0  0  0  0  0
    0.7590    1.6829   -1.4126 H   0  0  0  0  0  0  0  0  0  0  0  0
    0.7770    0.1428   -2.2406 H   0  0  0  0  0  0  0  0  0  0  0  0
   -0.6911    0.6563   -1.3836 H   0  0  0  0  0  0  0  0  0  0  0  0
    2.6702   -0.0679    0.8340 H   0  0  0  0  0  0  0  0  0  0  0  0
    2.5426   -1.2822   -1.1690 H   0  0  0  0  0  0  0  0  0  0  0  0
  1  2  1  0  0  0  0
  1  3  1  0  0  0  0
  1  4  1  0  0  0  0
  1  5  1  0  0  0  0
  2  6  1  0  0  0  0
  2  9  1  0  0  0  0
  2 10  1  0  0  0  0
  3 11  1  0  0  0  0
  3 12  1  0  0  0  0
  3 13  1  0  0  0  0
  4 14  1  0  0  0  0
  4 15  1  0  0  0  0
  4 16  1  0  0  0  0
  5 17  1  0  0  0  0
  6  7  1  0  0  0  0
  6  8  2  0  0  0  0
  7 18  1  0  0  0  0
M  END
>  <Mol_ID>
3578

>  <Formula>
C5H10O3

>  <MolWeight>
118.1311

>  <Cat>
S6124

>  <Name>
3-Hydroxyisovaleric acid

>  <Synonyms>
N/A

>  <Target>
Others

>  <Form>
free base

>  <CAS>
625-08-1

>  <URL>
http://www.selleck.cn/products/hydroxyisovaleric-acid.html

$$$$
