3-Indolebutyric acid.cdx
 OpenBabel08302521353D

 28 29  0  0  0  0  0  0  0  0999 V2000
    1.0223    1.4282   -0.0226 C   0  0  0  0  0  0  0  0  0  0  0  0
    2.2338    0.7344    0.0238 C   0  0  0  0  0  0  0  0  0  0  0  0
    2.2623   -0.6575    0.0565 C   0  0  0  0  0  0  0  0  0  0  0  0
    1.0721   -1.3956    0.0522 C   0  0  0  0  0  0  0  0  0  0  0  0
   -0.1662   -0.7215   -0.0012 C   0  0  0  0  0  0  0  0  0  0  0  0
   -0.1577    0.6739   -0.0417 C   0  0  0  0  0  0  0  0  0  0  0  0
   -1.5357   -1.1457   -0.0381 C   0  0  0  0  0  0  0  0  0  0  0  0
   -2.3019    0.0010   -0.1337 C   0  0  0  0  0  0  0  0  0  0  0  0
   -1.4665    1.0848   -0.1168 N   0  0  0  0  0  0  0  0  0  0  0  0
   -2.0488   -2.5497   -0.0171 C   0  0  0  0  0  0  0  0  0  0  0  0
   -2.2589   -3.1070    1.3928 C   0  0  0  0  0  0  0  0  0  0  0  0
   -3.3218   -2.3574    2.1907 C   0  0  0  0  0  0  0  0  0  0  0  0
   -3.5347   -3.0118    3.5303 C   0  0  0  0  0  0  0  0  0  0  0  0
   -2.7037   -2.5428    4.4907 O   0  0  0  0  0  0  0  0  0  0  0  0
   -4.3446   -3.8993    3.7367 O   0  0  0  0  0  0  0  0  0  0  0  0
    1.0040    2.5118   -0.0549 H   0  0  0  0  0  0  0  0  0  0  0  0
    3.1686    1.2896    0.0267 H   0  0  0  0  0  0  0  0  0  0  0  0
    3.2147   -1.1781    0.0819 H   0  0  0  0  0  0  0  0  0  0  0  0
    1.1079   -2.4824    0.0717 H   0  0  0  0  0  0  0  0  0  0  0  0
   -3.3735    0.1351   -0.2132 H   0  0  0  0  0  0  0  0  0  0  0  0
   -1.7613    2.0499   -0.1755 H   0  0  0  0  0  0  0  0  0  0  0  0
   -2.9904   -2.6062   -0.5792 H   0  0  0  0  0  0  0  0  0  0  0  0
   -1.3399   -3.1986   -0.5482 H   0  0  0  0  0  0  0  0  0  0  0  0
   -2.5573   -4.1600    1.3071 H   0  0  0  0  0  0  0  0  0  0  0  0
   -1.3103   -3.1030    1.9455 H   0  0  0  0  0  0  0  0  0  0  0  0
   -3.0555   -1.3057    2.3487 H   0  0  0  0  0  0  0  0  0  0  0  0
   -4.2825   -2.3552    1.6609 H   0  0  0  0  0  0  0  0  0  0  0  0
   -2.0914   -1.8492    4.1783 H   0  0  0  0  0  0  0  0  0  0  0  0
  1  2  2  0  0  0  0
  1 16  1  0  0  0  0
  2  3  1  0  0  0  0
  2 17  1  0  0  0  0
  3  4  2  0  0  0  0
  3 18  1  0  0  0  0
  4  5  1  0  0  0  0
  4 19  1  0  0  0  0
  5  6  2  0  0  0  0
  5  7  1  0  0  0  0
  6  1  1  0  0  0  0
  7  8  2  0  0  0  0
  7 10  1  0  0  0  0
  8  9  1  0  0  0  0
  8 20  1  0  0  0  0
  9  6  1  0  0  0  0
  9 21  1  0  0  0  0
 10 11  1  0  0  0  0
 10 22  1  0  0  0  0
 10 23  1  0  0  0  0
 11 12  1  0  0  0  0
 11 24  1  0  0  0  0
 11 25  1  0  0  0  0
 12 13  1  0  0  0  0
 12 26  1  0  0  0  0
 12 27  1  0  0  0  0
 13 14  1  0  0  0  0
 13 15  2  0  0  0  0
 14 28  1  0  0  0  0
M  END
>  <Mol_ID>
654

>  <Formula>
C12H13NO2

>  <MolWeight>
203.23712

>  <Cat>
S2253

>  <Name>
3-Indolebutyric acid (IBA)

>  <Synonyms>
N/A

>  <Target>
Others

>  <Form>
free base

>  <CAS>
133-32-4

>  <URL>
http://selleckchem.com/products/3-Indolebutyric-acid(IBA).html

$$$$
