3-Methylbutanoic acid
 OpenBabel08302520393D

 17 16  0  0  0  0  0  0  0  0999 V2000
    0.9201   -0.1273    0.0447 C   0  0  0  0  0  0  0  0  0  0  0  0
    0.4249   -0.9564   -1.1470 C   0  0  0  0  0  0  0  0  0  0  0  0
    0.4288   -0.6983    1.3770 C   0  0  0  0  0  0  0  0  0  0  0  0
    0.4560    1.3229   -0.1012 C   0  0  0  0  0  0  0  0  0  0  0  0
    0.9388   -2.3770   -1.1025 C   0  0  0  0  0  0  0  0  0  0  0  0
   -0.0391   -3.3079   -1.0541 O   0  0  0  0  0  0  0  0  0  0  0  0
    2.1240   -2.6747   -1.0996 O   0  0  0  0  0  0  0  0  0  0  0  0
    2.0173   -0.1362    0.0564 H   0  0  0  0  0  0  0  0  0  0  0  0
   -0.6699   -0.9454   -1.1884 H   0  0  0  0  0  0  0  0  0  0  0  0
    0.7738   -0.5229   -2.0922 H   0  0  0  0  0  0  0  0  0  0  0  0
    0.7784   -0.0833    2.2134 H   0  0  0  0  0  0  0  0  0  0  0  0
   -0.6654   -0.7305    1.4148 H   0  0  0  0  0  0  0  0  0  0  0  0
    0.8047   -1.7135    1.5388 H   0  0  0  0  0  0  0  0  0  0  0  0
    0.8259    1.9355    0.7277 H   0  0  0  0  0  0  0  0  0  0  0  0
    0.8293    1.7604   -1.0329 H   0  0  0  0  0  0  0  0  0  0  0  0
   -0.6375    1.3915   -0.1096 H   0  0  0  0  0  0  0  0  0  0  0  0
   -0.9444   -2.9465   -1.0489 H   0  0  0  0  0  0  0  0  0  0  0  0
  1  2  1  0  0  0  0
  1  3  1  0  0  0  0
  1  4  1  0  0  0  0
  1  8  1  0  0  0  0
  2  5  1  0  0  0  0
  2  9  1  0  0  0  0
  2 10  1  0  0  0  0
  3 11  1  0  0  0  0
  3 12  1  0  0  0  0
  3 13  1  0  0  0  0
  4 14  1  0  0  0  0
  4 15  1  0  0  0  0
  4 16  1  0  0  0  0
  5  6  1  0  0  0  0
  5  7  2  0  0  0  0
  6 17  1  0  0  0  0
M  END
>  <Mol_ID>
3638

>  <Formula>
C5H10O2

>  <MolWeight>
102.1317

>  <Cat>
S6287

>  <Name>
3-Methylbutanoic acid

>  <Synonyms>
Isovaleric acid, Delphinic acid, 3-Methylbutyric acid, Isopentanoic acid, ¦Â-methylbutyric acid

>  <Target>
Others

>  <Form>
free base

>  <CAS>
503-74-2

>  <URL>
http://www.selleck.cn/products/methylbutanoic-acid.html

$$$$
