3-Methyl-2-oxobutanoic acid
 OpenBabel08302520393D

 16 15  0  0  0  0  0  0  0  0999 V2000
    2.0090   -1.1759    1.7504 O   0  0  0  0  0  0  0  0  0  0  0  0
    0.8697   -1.6185    1.1902 C   0  0  0  0  0  0  0  0  0  0  0  0
    1.1855   -2.4983   -0.0139 C   0  0  0  0  0  0  0  0  0  0  0  0
   -0.2562   -1.4309    1.6065 O   0  0  0  0  0  0  0  0  0  0  0  0
    0.3652   -3.7671   -0.1504 C   0  0  0  0  0  0  0  0  0  0  0  0
    2.1631   -2.1994   -0.6868 O   0  0  0  0  0  0  0  0  0  0  0  0
    0.6741   -4.4762   -1.4676 C   0  0  0  0  0  0  0  0  0  0  0  0
    0.6828   -4.6789    1.0321 C   0  0  0  0  0  0  0  0  0  0  0  0
    2.7733   -1.4026    1.1721 H   0  0  0  0  0  0  0  0  0  0  0  0
   -0.6980   -3.4983   -0.1434 H   0  0  0  0  0  0  0  0  0  0  0  0
    1.7363   -4.7331   -1.5423 H   0  0  0  0  0  0  0  0  0  0  0  0
    0.0962   -5.3989   -1.5579 H   0  0  0  0  0  0  0  0  0  0  0  0
    0.4313   -3.8326   -2.3205 H   0  0  0  0  0  0  0  0  0  0  0  0
    0.4007   -4.2113    1.9818 H   0  0  0  0  0  0  0  0  0  0  0  0
    0.1432   -5.6274    0.9556 H   0  0  0  0  0  0  0  0  0  0  0  0
    1.7563   -4.8961    1.0837 H   0  0  0  0  0  0  0  0  0  0  0  0
  1  2  1  0  0  0  0
  1  9  1  0  0  0  0
  2  3  1  0  0  0  0
  2  4  2  0  0  0  0
  3  5  1  0  0  0  0
  3  6  2  0  0  0  0
  5  7  1  0  0  0  0
  5  8  1  0  0  0  0
  5 10  1  0  0  0  0
  7 11  1  0  0  0  0
  7 12  1  0  0  0  0
  7 13  1  0  0  0  0
  8 14  1  0  0  0  0
  8 15  1  0  0  0  0
  8 16  1  0  0  0  0
M  END
>  <Mol_ID>
3591

>  <Formula>
C5H8O3

>  <MolWeight>
116.11522

>  <Cat>
S6148

>  <Name>
3-Methyl-2-oxobutanoic acid

>  <Synonyms>
alpha-Ketoisovalerate, alpha-Ketoisovaleric acid

>  <Target>
Others

>  <Form>
free base

>  <CAS>
759-05-7

>  <URL>
http://www.selleck.cn/products/methyl-2-oxobutanoic-acid.html

$$$$
