4'-Demethylepipodophyllotoxin.cdx
 OpenBabel08302519513D

 49 53  0  0  0  0  0  0  0  0999 V2000
    2.4403    0.6759   -0.1125 C   0  0  0  0  0  0  0  0  0  0  0  0
    2.4284   -0.6971   -0.0507 C   0  0  0  0  0  0  0  0  0  0  0  0
    1.2529   -1.4128    0.0234 C   0  0  0  0  0  0  0  0  0  0  0  0
    0.0377   -0.7001    0.0107 C   0  0  0  0  0  0  0  0  0  0  0  0
    0.0502    0.7376   -0.0543 C   0  0  0  0  0  0  0  0  0  0  0  0
    1.2798    1.4194   -0.1051 C   0  0  0  0  0  0  0  0  0  0  0  0
   -1.2880   -1.4862    0.1700 C   0  0  2  0  0  0  0  0  0  0  0  0
   -2.3954   -0.6054   -0.4085 C   0  0  2  0  0  0  0  0  0  0  0  0
   -2.4373    0.7206    0.3223 C   0  0  1  0  0  0  0  0  0  0  0  0
   -1.2376    1.5590   -0.0899 C   0  0  2  0  0  0  0  0  0  0  0  0
   -3.8179   -1.0555   -0.3261 C   0  0  0  0  0  0  0  0  0  0  0  0
   -4.6167    0.0176   -0.0423 O   0  0  0  0  0  0  0  0  0  0  0  0
   -3.8222    1.2144    0.0009 C   0  0  0  0  0  0  0  0  0  0  0  0
   -1.5022   -1.9433    1.6205 C   0  0  0  0  0  0  0  0  0  0  0  0
   -1.0028   -1.1931    2.6997 C   0  0  0  0  0  0  0  0  0  0  0  0
   -1.0980   -1.6464    4.0113 C   0  0  0  0  0  0  0  0  0  0  0  0
   -1.7442   -2.8620    4.2727 C   0  0  0  0  0  0  0  0  0  0  0  0
   -2.3079   -3.6105    3.2349 C   0  0  0  0  0  0  0  0  0  0  0  0
   -2.1763   -3.1409    1.9135 C   0  0  0  0  0  0  0  0  0  0  0  0
   -1.7783   -3.2756    5.5810 O   0  0  0  0  0  0  0  0  0  0  0  0
   -0.5823   -0.9973    5.1079 O   0  0  0  0  0  0  0  0  0  0  0  0
    0.1098    0.2235    4.8561 C   0  0  0  0  0  0  0  0  0  0  0  0
   -2.9893   -4.7954    3.3230 O   0  0  0  0  0  0  0  0  0  0  0  0
   -3.1670   -5.3713    4.6100 C   0  0  0  0  0  0  0  0  0  0  0  0
   -4.2283   -2.1795   -0.5825 O   0  0  0  0  0  0  0  0  0  0  0  0
    3.7019    1.1810   -0.1864 O   0  0  0  0  0  0  0  0  0  0  0  0
    4.4658   -0.0365   -0.3160 C   0  0  0  0  0  0  0  0  0  0  0  0
    3.6830   -1.2235   -0.0706 O   0  0  0  0  0  0  0  0  0  0  0  0
   -1.4408    2.0567   -1.4064 O   0  0  0  0  0  0  0  0  0  0  0  0
    1.2771   -2.4960    0.0997 H   0  0  0  0  0  0  0  0  0  0  0  0
    1.3317    2.5028   -0.1464 H   0  0  0  0  0  0  0  0  0  0  0  0
   -1.2073   -2.3883   -0.4552 H   0  0  0  0  0  0  0  0  0  0  0  0
   -2.2064   -0.4467   -1.4810 H   0  0  0  0  0  0  0  0  0  0  0  0
   -2.4090    0.5661    1.4062 H   0  0  0  0  0  0  0  0  0  0  0  0
   -1.1481    2.4186    0.5841 H   0  0  0  0  0  0  0  0  0  0  0  0
   -3.9132    1.7301   -0.9582 H   0  0  0  0  0  0  0  0  0  0  0  0
   -4.2026    1.8651    0.7948 H   0  0  0  0  0  0  0  0  0  0  0  0
   -0.5140   -0.2468    2.4984 H   0  0  0  0  0  0  0  0  0  0  0  0
   -2.6026   -3.7391    1.1085 H   0  0  0  0  0  0  0  0  0  0  0  0
   -1.2909   -2.5897    6.0780 H   0  0  0  0  0  0  0  0  0  0  0  0
    0.9386    0.0818    4.1534 H   0  0  0  0  0  0  0  0  0  0  0  0
   -0.5828    0.9935    4.4987 H   0  0  0  0  0  0  0  0  0  0  0  0
    0.5378    0.5693    5.8011 H   0  0  0  0  0  0  0  0  0  0  0  0
   -2.2073   -5.6777    5.0395 H   0  0  0  0  0  0  0  0  0  0  0  0
   -3.7234   -4.7063    5.2791 H   0  0  0  0  0  0  0  0  0  0  0  0
   -3.7706   -6.2766    4.4884 H   0  0  0  0  0  0  0  0  0  0  0  0
    5.3060   -0.0075    0.3862 H   0  0  0  0  0  0  0  0  0  0  0  0
    4.8633   -0.0885   -1.3372 H   0  0  0  0  0  0  0  0  0  0  0  0
   -0.5777    2.3186   -1.7714 H   0  0  0  0  0  0  0  0  0  0  0  0
  1  2  1  0  0  0  0
  1 26  1  0  0  0  0
  2  3  2  0  0  0  0
  3  4  1  0  0  0  0
  3 30  1  0  0  0  0
  4  5  2  0  0  0  0
  4  7  1  0  0  0  0
  5  6  1  0  0  0  0
  6  1  2  0  0  0  0
  6 31  1  0  0  0  0
  7  8  1  0  0  0  0
  7 14  1  0  0  0  0
  7 32  1  6  0  0  0
  8  9  1  0  0  0  0
  8 11  1  0  0  0  0
  8 33  1  6  0  0  0
  9 10  1  0  0  0  0
  9 13  1  0  0  0  0
  9 34  1  1  0  0  0
 10  5  1  0  0  0  0
 10 35  1  1  0  0  0
 10 29  1  0  0  0  0
 11 12  1  0  0  0  0
 11 25  2  0  0  0  0
 12 13  1  0  0  0  0
 13 36  1  0  0  0  0
 13 37  1  0  0  0  0
 14 15  2  0  0  0  0
 15 16  1  0  0  0  0
 15 38  1  0  0  0  0
 16 17  2  0  0  0  0
 16 21  1  0  0  0  0
 17 18  1  0  0  0  0
 17 20  1  0  0  0  0
 18 19  2  0  0  0  0
 18 23  1  0  0  0  0
 19 14  1  0  0  0  0
 19 39  1  0  0  0  0
 20 40  1  0  0  0  0
 21 22  1  0  0  0  0
 22 41  1  0  0  0  0
 22 42  1  0  0  0  0
 22 43  1  0  0  0  0
 23 24  1  0  0  0  0
 24 44  1  0  0  0  0
 24 45  1  0  0  0  0
 24 46  1  0  0  0  0
 26 27  1  0  0  0  0
 27 28  1  0  0  0  0
 27 47  1  0  0  0  0
 27 48  1  0  0  0  0
 28  2  1  0  0  0  0
 29 49  1  0  0  0  0
M  END
>  <Mol_ID>
1910

>  <Formula>
C21H20O8

>  <MolWeight>
400.3787

>  <Cat>
S2254

>  <Name>
4-Demethylepipodophyllotoxin(NSC-122819,VM-26)

>  <Synonyms>
DMEP

>  <Target>
Microtubule Associated

>  <Form>
free base

>  <CAS>
6559-91-7

>  <URL>
http://selleckchem.com/products/4-Demethylepipodophyllotoxin.html

$$$$
