4'-O-Methylpyridoxine
 OpenBabel08302521523D

 26 26  0  0  0  0  0  0  0  0999 V2000
    1.0182   -0.0845    0.0325 C   0  0  0  0  0  0  0  0  0  0  0  0
   -0.0454   -0.7215   -0.6753 O   0  0  0  0  0  0  0  0  0  0  0  0
    0.3489   -1.0859   -1.9935 C   0  0  0  0  0  0  0  0  0  0  0  0
   -0.0227   -2.0610    2.0878 C   0  0  0  0  0  0  0  0  0  0  0  0
    0.8239   -2.7594    2.9936 O   0  0  0  0  0  0  0  0  0  0  0  0
    1.0552    2.7164    0.9881 O   0  0  0  0  0  0  0  0  0  0  0  0
    0.1790    3.4962    3.5684 C   0  0  0  0  0  0  0  0  0  0  0  0
    0.5334    0.3677    1.3918 C   0  0  0  0  0  0  0  0  0  0  0  0
    0.0617   -0.5807    2.3336 C   0  0  0  0  0  0  0  0  0  0  0  0
    0.5760    1.7175    1.7953 C   0  0  0  0  0  0  0  0  0  0  0  0
   -0.3441   -0.1140    3.5856 C   0  0  0  0  0  0  0  0  0  0  0  0
    0.1520    2.0793    3.0819 C   0  0  0  0  0  0  0  0  0  0  0  0
   -0.3118    1.1762    3.9737 N   0  0  0  0  0  0  0  0  0  0  0  0
    1.3878    0.7447   -0.5737 H   0  0  0  0  0  0  0  0  0  0  0  0
    1.8529   -0.7813    0.1671 H   0  0  0  0  0  0  0  0  0  0  0  0
    0.4633   -0.1882   -2.6078 H   0  0  0  0  0  0  0  0  0  0  0  0
    1.2840   -1.6542   -1.9810 H   0  0  0  0  0  0  0  0  0  0  0  0
   -0.4334   -1.7115   -2.4313 H   0  0  0  0  0  0  0  0  0  0  0  0
   -1.0521   -2.4084    2.2337 H   0  0  0  0  0  0  0  0  0  0  0  0
    0.2736   -2.3541    1.0844 H   0  0  0  0  0  0  0  0  0  0  0  0
    1.6753   -2.2888    3.0161 H   0  0  0  0  0  0  0  0  0  0  0  0
    0.9575    2.4771    0.0544 H   0  0  0  0  0  0  0  0  0  0  0  0
   -0.8262    3.8018    3.8736 H   0  0  0  0  0  0  0  0  0  0  0  0
    0.8470    3.5761    4.4373 H   0  0  0  0  0  0  0  0  0  0  0  0
    0.5259    4.2076    2.8123 H   0  0  0  0  0  0  0  0  0  0  0  0
   -0.7122   -0.8039    4.3440 H   0  0  0  0  0  0  0  0  0  0  0  0
  1  2  1  0  0  0  0
  1  8  1  0  0  0  0
  1 14  1  0  0  0  0
  1 15  1  0  0  0  0
  2  3  1  0  0  0  0
  3 16  1  0  0  0  0
  3 17  1  0  0  0  0
  3 18  1  0  0  0  0
  4  5  1  0  0  0  0
  4  9  1  0  0  0  0
  4 19  1  0  0  0  0
  4 20  1  0  0  0  0
  5 21  1  0  0  0  0
  6 10  1  0  0  0  0
  6 22  1  0  0  0  0
  7 12  1  0  0  0  0
  7 23  1  0  0  0  0
  7 24  1  0  0  0  0
  7 25  1  0  0  0  0
  8  9  2  0  0  0  0
  8 10  1  0  0  0  0
  9 11  1  0  0  0  0
 10 12  2  0  0  0  0
 11 13  2  0  0  0  0
 11 26  1  0  0  0  0
 12 13  1  0  0  0  0
M  END
>  <Mol_ID>
9949

>  <Formula>
C9H13NO3

>  <MolWeight>
183.20442

>  <Cat>
E5186

>  <Name>
4'-O-Methylpyridoxine

>  <Synonyms>
N/A

>  <Target>
GABA Receptor

>  <Form>
free base

>  <CAS>
1464-33-1

>  <URL>
https://www.selleckchem.com/products/4-o-methylpyridoxine.html

$$$$
