4-Aminobenzohydrazide
 OpenBabel08302521313D

 20 20  0  0  0  0  0  0  0  0999 V2000
    1.0270    0.0655   -0.1090 C   0  0  0  0  0  0  0  0  0  0  0  0
    0.2061    1.2401    0.2941 C   0  0  0  0  0  0  0  0  0  0  0  0
    0.5263    2.5354   -0.1268 C   0  0  0  0  0  0  0  0  0  0  0  0
   -0.2272    3.6235    0.3276 C   0  0  0  0  0  0  0  0  0  0  0  0
   -1.3268    3.4336    1.1694 C   0  0  0  0  0  0  0  0  0  0  0  0
   -1.6083    2.1422    1.6233 C   0  0  0  0  0  0  0  0  0  0  0  0
   -0.8569    1.0482    1.1808 C   0  0  0  0  0  0  0  0  0  0  0  0
    1.1773   -0.8841    0.6507 O   0  0  0  0  0  0  0  0  0  0  0  0
    1.5817    0.1210   -1.3825 N   0  0  0  0  0  0  0  0  0  0  0  0
    2.3128   -0.9930   -1.8547 N   0  0  0  0  0  0  0  0  0  0  0  0
   -1.9723    4.5353    1.7393 N   0  0  0  0  0  0  0  0  0  0  0  0
    1.3884    2.7238   -0.7608 H   0  0  0  0  0  0  0  0  0  0  0  0
    0.0666    4.6286    0.0344 H   0  0  0  0  0  0  0  0  0  0  0  0
   -2.4072    1.9758    2.3416 H   0  0  0  0  0  0  0  0  0  0  0  0
   -1.0920    0.0497    1.5461 H   0  0  0  0  0  0  0  0  0  0  0  0
    1.2266    0.7890   -2.0630 H   0  0  0  0  0  0  0  0  0  0  0  0
    3.3058   -0.7438   -1.8448 H   0  0  0  0  0  0  0  0  0  0  0  0
    2.2355   -1.7211   -1.1286 H   0  0  0  0  0  0  0  0  0  0  0  0
   -2.9063    4.3384    2.0850 H   0  0  0  0  0  0  0  0  0  0  0  0
   -1.9380    5.3796    1.1771 H   0  0  0  0  0  0  0  0  0  0  0  0
  1  2  1  0  0  0  0
  1  8  2  0  0  0  0
  1  9  1  0  0  0  0
  2  3  2  0  0  0  0
  2  7  1  0  0  0  0
  3  4  1  0  0  0  0
  3 12  1  0  0  0  0
  4  5  2  0  0  0  0
  4 13  1  0  0  0  0
  5  6  1  0  0  0  0
  5 11  1  0  0  0  0
  6  7  2  0  0  0  0
  6 14  1  0  0  0  0
  7 15  1  0  0  0  0
  9 10  1  0  0  0  0
  9 16  1  0  0  0  0
 10 17  1  0  0  0  0
 10 18  1  0  0  0  0
 11 19  1  0  0  0  0
 11 20  1  0  0  0  0
M  END
>  <Mol_ID>
5937

>  <Formula>
C7H9N3O

>  <MolWeight>
151.16586

>  <Cat>
S9874

>  <Name>
4-Aminobenzohydrazide

>  <Synonyms>
4-Aminobenzhydrazide, 4-aminobenzoic acid hydrazide, 4-ABAH, Myeloperoxidase Inhibitor I, NSC 640

>  <Target>
Peroxidases

>  <Form>
Free Base

>  <CAS>
5351-17-7

>  <URL>
http://www.selleckchem.com/products/4-aminobenzohydrazide.html

$$$$
