4-AMino-1-phenylpyrazolo[3,4-d]pyriMidine
 OpenBabel08302521383D

 25 27  0  0  0  0  0  0  0  0999 V2000
    1.1203   -0.0436    0.0822 N   0  0  0  0  0  0  0  0  0  0  0  0
   -2.7596    0.2262    2.6967 N   0  0  0  0  0  0  0  0  0  0  0  0
   -1.6933    0.9938    2.2230 C   0  0  0  0  0  0  0  0  0  0  0  0
   -2.6772   -1.0640    2.2402 N   0  0  0  0  0  0  0  0  0  0  0  0
   -0.9171    0.1505    1.4427 C   0  0  0  0  0  0  0  0  0  0  0  0
   -1.4194    2.2929    2.4646 N   0  0  0  0  0  0  0  0  0  0  0  0
   -1.5743   -1.0867    1.4932 C   0  0  0  0  0  0  0  0  0  0  0  0
    0.2365    0.6821    0.8600 C   0  0  0  0  0  0  0  0  0  0  0  0
   -0.2957    2.6994    1.8554 C   0  0  0  0  0  0  0  0  0  0  0  0
    0.5274    1.9794    1.0732 N   0  0  0  0  0  0  0  0  0  0  0  0
   -3.8488    0.6106    3.5401 C   0  0  0  0  0  0  0  0  0  0  0  0
   -4.0217    1.9326    3.9703 C   0  0  0  0  0  0  0  0  0  0  0  0
   -4.7788   -0.3609    3.9485 C   0  0  0  0  0  0  0  0  0  0  0  0
   -5.1034    2.2752    4.7888 C   0  0  0  0  0  0  0  0  0  0  0  0
   -5.8553   -0.0134    4.7703 C   0  0  0  0  0  0  0  0  0  0  0  0
   -6.0176    1.3051    5.1882 C   0  0  0  0  0  0  0  0  0  0  0  0
    0.7710   -0.8635   -0.3905 H   0  0  0  0  0  0  0  0  0  0  0  0
    1.7560    0.5548   -0.4328 H   0  0  0  0  0  0  0  0  0  0  0  0
   -1.2894   -2.0145    1.0148 H   0  0  0  0  0  0  0  0  0  0  0  0
   -0.0144    3.7358    2.0169 H   0  0  0  0  0  0  0  0  0  0  0  0
   -3.3441    2.7295    3.6853 H   0  0  0  0  0  0  0  0  0  0  0  0
   -4.6784   -1.4001    3.6395 H   0  0  0  0  0  0  0  0  0  0  0  0
   -5.2286    3.3063    5.1119 H   0  0  0  0  0  0  0  0  0  0  0  0
   -6.5662   -0.7739    5.0823 H   0  0  0  0  0  0  0  0  0  0  0  0
   -6.8562    1.5766    5.8247 H   0  0  0  0  0  0  0  0  0  0  0  0
  1  8  1  0  0  0  0
  1 17  1  0  0  0  0
  1 18  1  0  0  0  0
  2  3  1  0  0  0  0
  2  4  1  0  0  0  0
  2 11  1  0  0  0  0
  3  5  2  0  0  0  0
  3  6  1  0  0  0  0
  4  7  2  0  0  0  0
  5  7  1  0  0  0  0
  5  8  1  0  0  0  0
  6  9  2  0  0  0  0
  7 19  1  0  0  0  0
  8 10  2  0  0  0  0
  9 10  1  0  0  0  0
  9 20  1  0  0  0  0
 11 12  2  0  0  0  0
 11 13  1  0  0  0  0
 12 14  1  0  0  0  0
 12 21  1  0  0  0  0
 13 15  2  0  0  0  0
 13 22  1  0  0  0  0
 14 16  2  0  0  0  0
 14 23  1  0  0  0  0
 15 16  1  0  0  0  0
 15 24  1  0  0  0  0
 16 25  1  0  0  0  0
M  END
>  <Mol_ID>
7631

>  <Formula>
C11H9N5

>  <MolWeight>
211.22266

>  <Cat>
E2980

>  <Name>
4-AMino-1-phenylpyrazolo[3,4-d]pyriMidine

>  <Synonyms>
PP 3

>  <Target>
EGFR

>  <Form>
free base

>  <CAS>
5334-30-5

>  <URL>
https://www.selleckchem.com/products/4-amino-1-phenylpyrazolo-3-4-d-pyrimidine.html

$$$$
