4-Aminobenzoic acid.cdx
 OpenBabel08302522063D

 17 17  0  0  0  0  0  0  0  0999 V2000
   -1.1866    1.1913   -0.0029 C   0  0  0  0  0  0  0  0  0  0  0  0
    0.2120    1.2003   -0.0396 C   0  0  0  0  0  0  0  0  0  0  0  0
    0.9356    0.0051   -0.0077 C   0  0  0  0  0  0  0  0  0  0  0  0
    0.2350   -1.2037   -0.0367 C   0  0  0  0  0  0  0  0  0  0  0  0
   -1.1633   -1.2235    0.0003 C   0  0  0  0  0  0  0  0  0  0  0  0
   -1.8799   -0.0230    0.0223 C   0  0  0  0  0  0  0  0  0  0  0  0
   -3.3624    0.0085    0.0428 C   0  0  0  0  0  0  0  0  0  0  0  0
   -4.0559    1.0087    0.0430 O   0  0  0  0  0  0  0  0  0  0  0  0
   -3.9092   -1.2201    0.0606 O   0  0  0  0  0  0  0  0  0  0  0  0
    2.3231    0.0166   -0.1838 N   0  0  0  0  0  0  0  0  0  0  0  0
   -1.7293    2.1343   -0.0121 H   0  0  0  0  0  0  0  0  0  0  0  0
    0.7316    2.1535   -0.0962 H   0  0  0  0  0  0  0  0  0  0  0  0
    0.7733   -2.1465   -0.0908 H   0  0  0  0  0  0  0  0  0  0  0  0
   -1.6797   -2.1799   -0.0067 H   0  0  0  0  0  0  0  0  0  0  0  0
   -4.8739   -1.0475    0.0661 H   0  0  0  0  0  0  0  0  0  0  0  0
    2.7883   -0.8231    0.1470 H   0  0  0  0  0  0  0  0  0  0  0  0
    2.7749    0.8626    0.1496 H   0  0  0  0  0  0  0  0  0  0  0  0
  1  2  2  0  0  0  0
  1 11  1  0  0  0  0
  2  3  1  0  0  0  0
  2 12  1  0  0  0  0
  3  4  2  0  0  0  0
  3 10  1  0  0  0  0
  4  5  1  0  0  0  0
  4 13  1  0  0  0  0
  5  6  2  0  0  0  0
  5 14  1  0  0  0  0
  6  1  1  0  0  0  0
  6  7  1  0  0  0  0
  7  8  2  0  0  0  0
  7  9  1  0  0  0  0
  9 15  1  0  0  0  0
 10 16  1  0  0  0  0
 10 17  1  0  0  0  0
M  END
>  <Mol_ID>
1478

>  <Formula>
C7H7NO2

>  <MolWeight>
137.13598

>  <Cat>
S4510

>  <Name>
4-Aminobenzoic acid

>  <Synonyms>
para-Aminobenzoic acid

>  <Target>
Others

>  <Form>
free base

>  <CAS>
150-13-0

>  <URL>
http://selleckchem.com/products/4-aminobenzoic-acid.html

$$$$
