4-Hydroxy-3-methylbenzoic acid
 OpenBabel08302520393D

 19 19  0  0  0  0  0  0  0  0999 V2000
    1.9625   -0.6073   -0.0241 C   0  0  0  0  0  0  0  0  0  0  0  0
    0.7898   -1.3785   -0.0230 C   0  0  0  0  0  0  0  0  0  0  0  0
    1.8723    0.7873   -0.0027 C   0  0  0  0  0  0  0  0  0  0  0  0
    3.2617   -1.3300    0.0044 C   0  0  0  0  0  0  0  0  0  0  0  0
   -0.4782   -0.7732   -0.0167 C   0  0  0  0  0  0  0  0  0  0  0  0
    0.6160    1.3992   -0.0027 C   0  0  0  0  0  0  0  0  0  0  0  0
    4.2841   -0.6727   -0.5789 O   0  0  0  0  0  0  0  0  0  0  0  0
    3.3822   -2.4449    0.4862 O   0  0  0  0  0  0  0  0  0  0  0  0
   -0.5420    0.6234   -0.0119 C   0  0  0  0  0  0  0  0  0  0  0  0
   -1.7066   -1.6384   -0.0039 C   0  0  0  0  0  0  0  0  0  0  0  0
   -1.7225    1.3112   -0.0067 O   0  0  0  0  0  0  0  0  0  0  0  0
    0.8713   -2.4661   -0.0177 H   0  0  0  0  0  0  0  0  0  0  0  0
    2.7548    1.4167    0.0557 H   0  0  0  0  0  0  0  0  0  0  0  0
    0.5361    2.4830    0.0200 H   0  0  0  0  0  0  0  0  0  0  0  0
    4.0378    0.1305   -1.0721 H   0  0  0  0  0  0  0  0  0  0  0  0
   -2.3050   -1.4320    0.8889 H   0  0  0  0  0  0  0  0  0  0  0  0
   -2.3086   -1.4514   -0.8988 H   0  0  0  0  0  0  0  0  0  0  0  0
   -1.4510   -2.7022    0.0088 H   0  0  0  0  0  0  0  0  0  0  0  0
   -2.4637    0.6870    0.0108 H   0  0  0  0  0  0  0  0  0  0  0  0
  1  2  2  0  0  0  0
  1  3  1  0  0  0  0
  1  4  1  0  0  0  0
  2  5  1  0  0  0  0
  2 12  1  0  0  0  0
  3  6  2  0  0  0  0
  3 13  1  0  0  0  0
  4  7  1  0  0  0  0
  4  8  2  0  0  0  0
  5  9  2  0  0  0  0
  5 10  1  0  0  0  0
  6  9  1  0  0  0  0
  6 14  1  0  0  0  0
  7 15  1  0  0  0  0
  9 11  1  0  0  0  0
 10 16  1  0  0  0  0
 10 17  1  0  0  0  0
 10 18  1  0  0  0  0
 11 19  1  0  0  0  0
M  END
>  <Mol_ID>
3645

>  <Formula>
C8H8O3

>  <MolWeight>
152.14732

>  <Cat>
S6297

>  <Name>
4-Hydroxy-3-methylbenzoic acid

>  <Synonyms>
N/A

>  <Target>
Others

>  <Form>
free base

>  <CAS>
499-76-3

>  <URL>
http://www.selleck.cn/products/4-hydroxy-3-methylbenzoic-acid.html

$$$$
