4-Hydroxymethylpyrazole
 OpenBabel08302521363D

 13 13  0  0  0  0  0  0  0  0999 V2000
    0.9641   -0.0648    0.1066 C   0  0  0  0  0  0  0  0  0  0  0  0
    0.3350   -1.1793    0.7312 O   0  0  0  0  0  0  0  0  0  0  0  0
    0.5305    1.2252    0.6955 C   0  0  0  0  0  0  0  0  0  0  0  0
    0.9551    2.5211    0.3194 C   0  0  0  0  0  0  0  0  0  0  0  0
   -0.3618    1.4609    1.7216 C   0  0  0  0  0  0  0  0  0  0  0  0
    0.3861    3.4846    1.0476 N   0  0  0  0  0  0  0  0  0  0  0  0
   -0.4081    2.8110    1.8952 N   0  0  0  0  0  0  0  0  0  0  0  0
    0.7204   -0.0903   -0.9608 H   0  0  0  0  0  0  0  0  0  0  0  0
    2.0474   -0.1791    0.2203 H   0  0  0  0  0  0  0  0  0  0  0  0
    0.6983   -1.9745    0.3090 H   0  0  0  0  0  0  0  0  0  0  0  0
    1.6581    2.8006   -0.4551 H   0  0  0  0  0  0  0  0  0  0  0  0
   -0.9500    0.7877    2.3292 H   0  0  0  0  0  0  0  0  0  0  0  0
   -0.9538    3.3388    2.5684 H   0  0  0  0  0  0  0  0  0  0  0  0
  1  2  1  0  0  0  0
  1  3  1  0  0  0  0
  1  8  1  0  0  0  0
  1  9  1  0  0  0  0
  2 10  1  0  0  0  0
  3  4  1  0  0  0  0
  3  5  2  0  0  0  0
  4  6  2  0  0  0  0
  4 11  1  0  0  0  0
  5  7  1  0  0  0  0
  5 12  1  0  0  0  0
  6  7  1  0  0  0  0
  7 13  1  0  0  0  0
M  END
>  <Mol_ID>
7055

>  <Formula>
C4H6N2O

>  <MolWeight>
98.10324

>  <Cat>
E4067

>  <Name>
4-Hydroxymethylpyrazole

>  <Synonyms>
1H-Pyrazole-4-methanol

>  <Target>
Others

>  <Form>
Free base

>  <CAS>
25222-43-9

>  <URL>
https://www.selleckchem.com/products/4-hydroxymethylpyrazole.html

$$$$
