4-Hydroxymandelic acid
 OpenBabel08302521373D

 20 20  0  0  0  0  0  0  0  0999 V2000
    0.9124    0.0466    0.0664 C   0  0  3  0  0  0  0  0  0  0  0  0
    2.4275    0.2888   -0.0259 C   0  0  0  0  0  0  0  0  0  0  0  0
    0.2449    1.2342   -0.3957 O   0  0  0  0  0  0  0  0  0  0  0  0
    2.7375    1.6075    0.1180 O   0  0  0  0  0  0  0  0  0  0  0  0
    3.2657   -0.5714   -0.2335 O   0  0  0  0  0  0  0  0  0  0  0  0
   -0.7414   -1.3466    5.3232 O   0  0  0  0  0  0  0  0  0  0  0  0
    0.4541   -0.2901    1.4701 C   0  0  0  0  0  0  0  0  0  0  0  0
    0.0123    0.6954    2.3710 C   0  0  0  0  0  0  0  0  0  0  0  0
    0.4793   -1.6257    1.9049 C   0  0  0  0  0  0  0  0  0  0  0  0
   -0.3941    0.3564    3.6661 C   0  0  0  0  0  0  0  0  0  0  0  0
    0.0736   -1.9644    3.1988 C   0  0  0  0  0  0  0  0  0  0  0  0
   -0.3583   -0.9728    4.0695 C   0  0  0  0  0  0  0  0  0  0  0  0
    0.6471   -0.7607   -0.6264 H   0  0  0  0  0  0  0  0  0  0  0  0
    0.1911    1.1471   -1.3665 H   0  0  0  0  0  0  0  0  0  0  0  0
    1.9053    2.1149    0.2534 H   0  0  0  0  0  0  0  0  0  0  0  0
   -1.0064   -0.5535    5.8174 H   0  0  0  0  0  0  0  0  0  0  0  0
   -0.0314    1.7402    2.0702 H   0  0  0  0  0  0  0  0  0  0  0  0
    0.8163   -2.4181    1.2388 H   0  0  0  0  0  0  0  0  0  0  0  0
   -0.7334    1.1379    4.3391 H   0  0  0  0  0  0  0  0  0  0  0  0
    0.0992   -3.0001    3.5267 H   0  0  0  0  0  0  0  0  0  0  0  0
  1  2  1  0  0  0  0
  1  3  1  0  0  0  0
  1  7  1  0  0  0  0
  1 13  1  0  0  0  0
  2  4  1  0  0  0  0
  2  5  2  0  0  0  0
  3 14  1  0  0  0  0
  4 15  1  0  0  0  0
  6 12  1  0  0  0  0
  6 16  1  0  0  0  0
  7  8  2  0  0  0  0
  7  9  1  0  0  0  0
  8 10  1  0  0  0  0
  8 17  1  0  0  0  0
  9 11  2  0  0  0  0
  9 18  1  0  0  0  0
 10 12  2  0  0  0  0
 10 19  1  0  0  0  0
 11 12  1  0  0  0  0
 11 20  1  0  0  0  0
M  END
>  <Mol_ID>
7437

>  <Formula>
C8H8O4

>  <MolWeight>
168.14672

>  <Cat>
E4539

>  <Name>
4-Hydroxymandelic acid

>  <Synonyms>
4-Hydroxymandelic acid

>  <Target>
Others

>  <Form>
Free base

>  <CAS>
1198-84-1

>  <URL>
https://www.selleckchem.com/products/4-hydroxymandelic-acid.html

$$$$
