4-METHOXYCHALCONE
 OpenBabel08302521373D

 32 33  0  0  0  0  0  0  0  0999 V2000
    1.0126   -0.0736   -0.0086 C   0  0  0  0  0  0  0  0  0  0  0  0
    0.2868   -1.3751   -0.0046 C   0  0  0  0  0  0  0  0  0  0  0  0
    0.4780    0.9623   -0.3866 O   0  0  0  0  0  0  0  0  0  0  0  0
   -1.0540   -1.3838   -0.0376 C   0  0  0  0  0  0  0  0  0  0  0  0
   -4.0264   -6.1787   -0.0417 O   0  0  0  0  0  0  0  0  0  0  0  0
   -4.3982   -6.8132    1.1760 C   0  0  0  0  0  0  0  0  0  0  0  0
    2.4323   -0.0615    0.4433 C   0  0  0  0  0  0  0  0  0  0  0  0
    3.2893    0.9133   -0.0869 C   0  0  0  0  0  0  0  0  0  0  0  0
    2.9135   -0.9393    1.4238 C   0  0  0  0  0  0  0  0  0  0  0  0
    4.6130    1.0026    0.3490 C   0  0  0  0  0  0  0  0  0  0  0  0
    4.2364   -0.8390    1.8651 C   0  0  0  0  0  0  0  0  0  0  0  0
    5.0848    0.1298    1.3285 C   0  0  0  0  0  0  0  0  0  0  0  0
   -1.8222   -2.6301   -0.0117 C   0  0  0  0  0  0  0  0  0  0  0  0
   -2.1715   -3.2138    1.2102 C   0  0  0  0  0  0  0  0  0  0  0  0
   -2.2220   -3.2455   -1.1999 C   0  0  0  0  0  0  0  0  0  0  0  0
   -2.9131   -4.4011    1.2468 C   0  0  0  0  0  0  0  0  0  0  0  0
   -2.9640   -4.4309   -1.1604 C   0  0  0  0  0  0  0  0  0  0  0  0
   -3.3102   -5.0176    0.0597 C   0  0  0  0  0  0  0  0  0  0  0  0
    0.8655   -2.2893    0.0173 H   0  0  0  0  0  0  0  0  0  0  0  0
   -1.6334   -0.4646   -0.0638 H   0  0  0  0  0  0  0  0  0  0  0  0
   -3.5208   -7.0579    1.7839 H   0  0  0  0  0  0  0  0  0  0  0  0
   -5.1079   -6.1958    1.7367 H   0  0  0  0  0  0  0  0  0  0  0  0
   -4.8975   -7.7547    0.9262 H   0  0  0  0  0  0  0  0  0  0  0  0
    2.9239    1.6115   -0.8376 H   0  0  0  0  0  0  0  0  0  0  0  0
    2.2679   -1.6833    1.8813 H   0  0  0  0  0  0  0  0  0  0  0  0
    5.2718    1.7613   -0.0670 H   0  0  0  0  0  0  0  0  0  0  0  0
    4.6039   -1.5068    2.6413 H   0  0  0  0  0  0  0  0  0  0  0  0
    6.1100    0.2125    1.6814 H   0  0  0  0  0  0  0  0  0  0  0  0
   -1.8769   -2.7448    2.1464 H   0  0  0  0  0  0  0  0  0  0  0  0
   -1.9670   -2.8081   -2.1625 H   0  0  0  0  0  0  0  0  0  0  0  0
   -3.1654   -4.8137    2.2174 H   0  0  0  0  0  0  0  0  0  0  0  0
   -3.2780   -4.8999   -2.0904 H   0  0  0  0  0  0  0  0  0  0  0  0
  1  2  1  0  0  0  0
  1  3  2  0  0  0  0
  1  7  1  0  0  0  0
  2  4  2  3  0  0  0
  2 19  1  0  0  0  0
  4 13  1  0  0  0  0
  4 20  1  0  0  0  0
  5  6  1  0  0  0  0
  5 18  1  0  0  0  0
  6 21  1  0  0  0  0
  6 22  1  0  0  0  0
  6 23  1  0  0  0  0
  7  8  2  0  0  0  0
  7  9  1  0  0  0  0
  8 10  1  0  0  0  0
  8 24  1  0  0  0  0
  9 11  2  0  0  0  0
  9 25  1  0  0  0  0
 10 12  2  0  0  0  0
 10 26  1  0  0  0  0
 11 12  1  0  0  0  0
 11 27  1  0  0  0  0
 12 28  1  0  0  0  0
 13 14  2  0  0  0  0
 13 15  1  0  0  0  0
 14 16  1  0  0  0  0
 14 29  1  0  0  0  0
 15 17  2  0  0  0  0
 15 30  1  0  0  0  0
 16 18  2  0  0  0  0
 16 31  1  0  0  0  0
 17 18  1  0  0  0  0
 17 32  1  0  0  0  0
M  END
>  <Mol_ID>
7353

>  <Formula>
C16H14O2

>  <MolWeight>
238.28116

>  <Cat>
E4400

>  <Name>
4-METHOXYCHALCONE

>  <Synonyms>
4-METHOXYCHALCONE

>  <Target>
Others

>  <Form>
free base

>  <CAS>
959-33-1

>  <URL>
https://www.selleckchem.com/products/4-methoxychalcone.html

$$$$
