4-Methylbiphenyl
 OpenBabel08302521363D

 25 26  0  0  0  0  0  0  0  0999 V2000
    2.5412    0.0135    0.0180 C   0  0  0  0  0  0  0  0  0  0  0  0
   -1.8062   -0.0035   -0.0091 C   0  0  0  0  0  0  0  0  0  0  0  0
   -1.0797    1.1997    0.0424 C   0  0  0  0  0  0  0  0  0  0  0  0
   -1.0600   -1.1954   -0.0196 C   0  0  0  0  0  0  0  0  0  0  0  0
    0.3218    1.2134    0.0520 C   0  0  0  0  0  0  0  0  0  0  0  0
    0.3400   -1.1880    0.0049 C   0  0  0  0  0  0  0  0  0  0  0  0
    1.0421    0.0183    0.0282 C   0  0  0  0  0  0  0  0  0  0  0  0
   -3.2896   -0.0190   -0.0752 C   0  0  0  0  0  0  0  0  0  0  0  0
   -4.0048    0.9860   -0.7538 C   0  0  0  0  0  0  0  0  0  0  0  0
   -4.0442   -1.0510    0.5138 C   0  0  0  0  0  0  0  0  0  0  0  0
   -5.4005    0.9564   -0.8487 C   0  0  0  0  0  0  0  0  0  0  0  0
   -5.4391   -1.0919    0.4087 C   0  0  0  0  0  0  0  0  0  0  0  0
   -6.1168   -0.0876   -0.2738 C   0  0  0  0  0  0  0  0  0  0  0  0
    2.9244   -0.5183    0.8946 H   0  0  0  0  0  0  0  0  0  0  0  0
    2.9093   -0.4772   -0.8890 H   0  0  0  0  0  0  0  0  0  0  0  0
    2.9470    1.0302    0.0356 H   0  0  0  0  0  0  0  0  0  0  0  0
   -1.5976    2.1558    0.0745 H   0  0  0  0  0  0  0  0  0  0  0  0
   -1.5609   -2.1594   -0.0700 H   0  0  0  0  0  0  0  0  0  0  0  0
    0.8398    2.1693    0.0732 H   0  0  0  0  0  0  0  0  0  0  0  0
    0.8752   -2.1346   -0.0076 H   0  0  0  0  0  0  0  0  0  0  0  0
   -3.4792    1.8037   -1.2415 H   0  0  0  0  0  0  0  0  0  0  0  0
   -3.5522   -1.8458    1.0703 H   0  0  0  0  0  0  0  0  0  0  0  0
   -5.9232    1.7458   -1.3824 H   0  0  0  0  0  0  0  0  0  0  0  0
   -5.9921   -1.9117    0.8599 H   0  0  0  0  0  0  0  0  0  0  0  0
   -7.1995   -0.1194   -0.3590 H   0  0  0  0  0  0  0  0  0  0  0  0
  1  7  1  0  0  0  0
  1 14  1  0  0  0  0
  1 15  1  0  0  0  0
  1 16  1  0  0  0  0
  2  3  2  0  0  0  0
  2  4  1  0  0  0  0
  2  8  1  0  0  0  0
  3  5  1  0  0  0  0
  3 17  1  0  0  0  0
  4  6  2  0  0  0  0
  4 18  1  0  0  0  0
  5  7  2  0  0  0  0
  5 19  1  0  0  0  0
  6  7  1  0  0  0  0
  6 20  1  0  0  0  0
  8  9  2  0  0  0  0
  8 10  1  0  0  0  0
  9 11  1  0  0  0  0
  9 21  1  0  0  0  0
 10 12  2  0  0  0  0
 10 22  1  0  0  0  0
 11 13  2  0  0  0  0
 11 23  1  0  0  0  0
 12 13  1  0  0  0  0
 12 24  1  0  0  0  0
 13 25  1  0  0  0  0
M  END
>  <Mol_ID>
7206

>  <Formula>
C13H12

>  <MolWeight>
168.23438

>  <Cat>
E4209

>  <Name>
4-Methylbiphenyl

>  <Synonyms>
4-Methylbiphenyl

>  <Target>
Endogenous Metabolite

>  <Form>
free base

>  <CAS>
644-08-6

>  <URL>
https://www.selleckchem.com/products/4-methylbiphenyl.html

$$$$
