5'-N-Ethylcarboxamidoadenosine (NECA)
 OpenBabel08302521313D

 38 40  0  0  0  0  0  0  0  0999 V2000
    1.6994    0.3440    0.3339 O   0  0  0  0  0  0  0  0  0  0  0  0
   -1.8444    0.9037   -0.0521 O   0  0  0  0  0  0  0  0  0  0  0  0
   -0.8087   -1.3931    0.6914 O   0  0  0  0  0  0  0  0  0  0  0  0
    1.3929   -0.9022   -2.8195 O   0  0  0  0  0  0  0  0  0  0  0  0
    1.0115    2.5723   -0.0725 N   0  0  0  0  0  0  0  0  0  0  0  0
    3.3846   -0.9539   -1.6720 N   0  0  0  0  0  0  0  0  0  0  0  0
    2.1510    4.1540   -1.1543 N   0  0  0  0  0  0  0  0  0  0  0  0
   -0.5226    3.9646    1.2139 N   0  0  0  0  0  0  0  0  0  0  0  0
   -0.1821    6.3265    0.7411 N   0  0  0  0  0  0  0  0  0  0  0  0
    1.4672    7.1455   -0.7268 N   0  0  0  0  0  0  0  0  0  0  0  0
   -0.5250    0.6582   -0.5367 C   0  0  1  0  0  0  0  0  0  0  0  0
    0.5695    1.2578    0.3521 C   0  0  1  0  0  0  0  0  0  0  0  0
   -0.1992   -0.8256   -0.4887 C   0  0  1  0  0  0  0  0  0  0  0  0
    1.3183   -0.8402   -0.3896 C   0  0  1  0  0  0  0  0  0  0  0  0
    2.0083   -0.8930   -1.7604 C   0  0  0  0  0  0  0  0  0  0  0  0
    0.4797    3.7657    0.3435 C   0  0  0  0  0  0  0  0  0  0  0  0
    2.0164    2.8595   -0.9588 C   0  0  0  0  0  0  0  0  0  0  0  0
    1.1984    4.7325   -0.3409 C   0  0  0  0  0  0  0  0  0  0  0  0
    4.2361   -1.0709   -2.8393 C   0  0  0  0  0  0  0  0  0  0  0  0
    0.8393    6.0707   -0.1071 C   0  0  0  0  0  0  0  0  0  0  0  0
   -0.7888    5.2811    1.3452 C   0  0  0  0  0  0  0  0  0  0  0  0
    4.6272    0.2854   -3.3947 C   0  0  0  0  0  0  0  0  0  0  0  0
   -2.1223    0.0973    0.4308 H   0  0  0  0  0  0  0  0  0  0  0  0
   -0.2325   -1.2323    1.4613 H   0  0  0  0  0  0  0  0  0  0  0  0
    3.8207   -0.7787   -0.7732 H   0  0  0  0  0  0  0  0  0  0  0  0
    1.9506    6.8815   -1.5783 H   0  0  0  0  0  0  0  0  0  0  0  0
    0.8674    7.9593   -0.7637 H   0  0  0  0  0  0  0  0  0  0  0  0
   -0.4559    1.0383   -1.5622 H   0  0  0  0  0  0  0  0  0  0  0  0
    0.2429    1.3429    1.3956 H   0  0  0  0  0  0  0  0  0  0  0  0
   -0.6108   -1.3702   -1.3429 H   0  0  0  0  0  0  0  0  0  0  0  0
    1.6640   -1.7069    0.1858 H   0  0  0  0  0  0  0  0  0  0  0  0
    2.6177    2.0936   -1.4307 H   0  0  0  0  0  0  0  0  0  0  0  0
    5.1304   -1.6233   -2.5328 H   0  0  0  0  0  0  0  0  0  0  0  0
    3.7203   -1.6566   -3.6076 H   0  0  0  0  0  0  0  0  0  0  0  0
   -1.5971    5.5370    2.0248 H   0  0  0  0  0  0  0  0  0  0  0  0
    5.1764    0.8685   -2.6481 H   0  0  0  0  0  0  0  0  0  0  0  0
    5.2682    0.1658   -4.2740 H   0  0  0  0  0  0  0  0  0  0  0  0
    3.7449    0.8626   -3.6883 H   0  0  0  0  0  0  0  0  0  0  0  0
  1 12  1  0  0  0  0
  1 14  1  0  0  0  0
  2 23  1  0  0  0  0
  3 24  1  0  0  0  0
  4 15  2  0  0  0  0
  5 16  1  0  0  0  0
  5 17  1  0  0  0  0
  6 15  1  0  0  0  0
  6 19  1  0  0  0  0
  6 25  1  0  0  0  0
  7 17  2  0  0  0  0
  7 18  1  0  0  0  0
  8 16  1  0  0  0  0
  8 21  2  0  0  0  0
  9 20  2  0  0  0  0
  9 21  1  0  0  0  0
 10 20  1  0  0  0  0
 10 26  1  0  0  0  0
 10 27  1  0  0  0  0
 11  2  1  0  0  0  0
 11 12  1  0  0  0  0
 11 13  1  0  0  0  0
 11 28  1  6  0  0  0
 12 29  1  1  0  0  0
 12  5  1  0  0  0  0
 13  3  1  0  0  0  0
 13 14  1  0  0  0  0
 13 30  1  6  0  0  0
 14 31  1  1  0  0  0
 14 15  1  0  0  0  0
 16 18  2  0  0  0  0
 17 32  1  0  0  0  0
 18 20  1  0  0  0  0
 19 22  1  0  0  0  0
 19 33  1  0  0  0  0
 19 34  1  0  0  0  0
 21 35  1  0  0  0  0
 22 36  1  0  0  0  0
 22 37  1  0  0  0  0
 22 38  1  0  0  0  0
M  END
>  <Mol_ID>
5893

>  <Formula>
C12H16N6O4

>  <MolWeight>
308.29324

>  <Cat>
S6347

>  <Name>
5'-N-Ethylcarboxamidoadenosine (NECA)

>  <Synonyms>
5'-(N-Ethylcarboxamido)adenosine, Adenosine-5'N-ethylcarboxamide, 5'-Ethylcarboxamidoadenosine

>  <Target>
Adenosine Receptor,CD markers,Interleukins,JNK,p38 MAPK,TNF-alpha

>  <Form>
Free Base

>  <CAS>
35920-39-9

>  <URL>
http://www.selleckchem.com/products/5-n-ethylcarboxamidoadenosine.html

$$$$
