5,6-Dichlorobenzimidazole 1-beta-D-ribofuranoside
 OpenBabel08302521373D

 32 34  0  0  1  0  0  0  0  0999 V2000
   -1.9047    0.8766   -0.0331 O   0  0  0  0  0  0  0  0  0  0  0  0
    1.8913   -1.0527   -1.7973 C   0  0  0  0  0  0  0  0  0  0  0  0
    3.3132   -1.0760   -1.7090 O   0  0  0  0  0  0  0  0  0  0  0  0
   -0.8079   -1.3424    0.7957 O   0  0  0  0  0  0  0  0  0  0  0  0
    0.8450    2.6388   -0.0042 N   0  0  0  0  0  0  0  0  0  0  0  0
    0.2331    3.7461    0.5406 C   0  0  0  0  0  0  0  0  0  0  0  0
    1.9310    3.0719   -0.7174 C   0  0  0  0  0  0  0  0  0  0  0  0
    1.0883    4.7967    0.2149 C   0  0  0  0  0  0  0  0  0  0  0  0
   -0.9282    3.9284    1.3019 C   0  0  0  0  0  0  0  0  0  0  0  0
    2.1137    4.3659   -0.5930 N   0  0  0  0  0  0  0  0  0  0  0  0
    0.8302    6.0796    0.7207 C   0  0  0  0  0  0  0  0  0  0  0  0
   -1.1772    5.2187    1.7847 C   0  0  0  0  0  0  0  0  0  0  0  0
   -0.3039    6.2745    1.5176 C   0  0  0  0  0  0  0  0  0  0  0  0
    0.5176    1.2563    0.3041 C   0  0  2  0  0  0  0  0  0  0  0  0
    1.6928    0.4284    0.1120 O   0  0  0  0  0  0  0  0  0  0  0  0
   -0.5930    0.6335   -0.5396 C   0  0  1  0  0  0  0  0  0  0  0  0
    1.2780   -0.8571   -0.4097 C   0  0  1  0  0  0  0  0  0  0  0  0
   -0.2464   -0.8464   -0.4362 C   0  0  1  0  0  0  0  0  0  0  0  0
   -2.1378    0.0947    0.5138 H   0  0  0  0  0  0  0  0  0  0  0  0
    1.5706   -2.0078   -2.2252 H   0  0  0  0  0  0  0  0  0  0  0  0
    1.6161   -0.2465   -2.4830 H   0  0  0  0  0  0  0  0  0  0  0  0
    3.5882   -0.2426   -1.2829 H   0  0  0  0  0  0  0  0  0  0  0  0
   -0.1309   -1.3142    1.4977 H   0  0  0  0  0  0  0  0  0  0  0  0
    2.5759    2.4056   -1.2660 H   0  0  0  0  0  0  0  0  0  0  0  0
   -1.6143    3.1147    1.5119 H   0  0  0  0  0  0  0  0  0  0  0  0
    1.5094    6.8959    0.5014 H   0  0  0  0  0  0  0  0  0  0  0  0
   -2.0656    5.3996    2.3868 H   0  0  0  0  0  0  0  0  0  0  0  0
   -0.5070    7.2613    1.9267 H   0  0  0  0  0  0  0  0  0  0  0  0
    0.2726    1.2237    1.3730 H   0  0  0  0  0  0  0  0  0  0  0  0
   -0.5415    0.9761   -1.5795 H   0  0  0  0  0  0  0  0  0  0  0  0
    1.6763   -1.6120    0.2778 H   0  0  0  0  0  0  0  0  0  0  0  0
   -0.6825   -1.4436   -1.2419 H   0  0  0  0  0  0  0  0  0  0  0  0
  1 19  1  0  0  0  0
  2  3  1  0  0  0  0
  2 20  1  0  0  0  0
  2 21  1  0  0  0  0
  3 22  1  0  0  0  0
  4 23  1  0  0  0  0
  5  6  1  0  0  0  0
  5  7  1  0  0  0  0
  6  8  2  0  0  0  0
  6  9  1  0  0  0  0
  7 10  2  0  0  0  0
  7 24  1  0  0  0  0
  8 10  1  0  0  0  0
  8 11  1  0  0  0  0
  9 12  2  0  0  0  0
  9 25  1  0  0  0  0
 11 13  2  0  0  0  0
 11 26  1  0  0  0  0
 12 13  1  0  0  0  0
 12 27  1  0  0  0  0
 13 28  1  0  0  0  0
 14 15  1  0  0  0  0
 14 16  1  0  0  0  0
 14 29  1  1  0  0  0
 14  5  1  0  0  0  0
 15 17  1  0  0  0  0
 16  1  1  0  0  0  0
 16 18  1  0  0  0  0
 16 30  1  6  0  0  0
 17 18  1  0  0  0  0
 17 31  1  1  0  0  0
 17  2  1  0  0  0  0
 18  4  1  0  0  0  0
 18 32  1  6  0  0  0
M  END
>  <Mol_ID>
7599

>  <Formula>
C12H12Cl2N2O4

>  <MolWeight>
319.14068

>  <Cat>
E2914

>  <Name>
5,6-Dichlorobenzimidazole 1-beta-D-ribofuranoside

>  <Synonyms>
DRB

>  <Target>
Casein Kinase

>  <Form>
dichloride

>  <CAS>
53-85-0

>  <URL>
https://www.selleckchem.com/products/5-6-dichlorobenzimidazole-1-beta-d-ribofuranoside.html

$$$$
