5,7,3',4'-Tetramethoxyflavone
 OpenBabel08302521473D

 43 45  0  0  0  0  0  0  0  0999 V2000
    1.0238    0.1146    0.0597 O   0  0  0  0  0  0  0  0  0  0  0  0
    0.0374   -0.8938    0.0795 C   0  0  0  0  0  0  0  0  0  0  0  0
    1.3482   -3.0761    0.2415 O   0  0  0  0  0  0  0  0  0  0  0  0
    5.2228    2.2502    0.0017 O   0  0  0  0  0  0  0  0  0  0  0  0
    4.5302    3.4940   -0.0146 C   0  0  0  0  0  0  0  0  0  0  0  0
    7.1019   -6.6262   -3.0480 O   0  0  0  0  0  0  0  0  0  0  0  0
    6.5803   -5.8655   -4.1300 C   0  0  0  0  0  0  0  0  0  0  0  0
    8.0989   -8.1159   -0.7393 O   0  0  0  0  0  0  0  0  0  0  0  0
    8.4854   -8.6159   -2.0105 C   0  0  0  0  0  0  0  0  0  0  0  0
    4.4975   -1.3010    0.0811 C   0  0  0  0  0  0  0  0  0  0  0  0
    3.0853   -1.3775    0.1102 C   0  0  0  0  0  0  0  0  0  0  0  0
    5.3383   -2.3963    0.0657 O   0  0  0  0  0  0  0  0  0  0  0  0
    5.1714   -0.0738    0.0458 C   0  0  0  0  0  0  0  0  0  0  0  0
    2.3612   -0.1687    0.0746 C   0  0  0  0  0  0  0  0  0  0  0  0
    2.5252   -2.7618    0.1732 C   0  0  0  0  0  0  0  0  0  0  0  0
    4.7678   -3.6456    0.0472 C   0  0  0  0  0  0  0  0  0  0  0  0
    4.4616    1.1166    0.0287 C   0  0  0  0  0  0  0  0  0  0  0  0
    3.0721    1.0574    0.0366 C   0  0  0  0  0  0  0  0  0  0  0  0
    3.4666   -3.8830    0.1223 C   0  0  0  0  0  0  0  0  0  0  0  0
    5.6838   -4.7658   -0.1685 C   0  0  0  0  0  0  0  0  0  0  0  0
    5.9817   -5.1439   -1.4875 C   0  0  0  0  0  0  0  0  0  0  0  0
    6.1931   -5.5086    0.8919 C   0  0  0  0  0  0  0  0  0  0  0  0
    6.7915   -6.2507   -1.7689 C   0  0  0  0  0  0  0  0  0  0  0  0
    7.0007   -6.6149    0.6249 C   0  0  0  0  0  0  0  0  0  0  0  0
    7.3040   -6.9988   -0.6938 C   0  0  0  0  0  0  0  0  0  0  0  0
    0.1124   -1.5309   -0.8064 H   0  0  0  0  0  0  0  0  0  0  0  0
    0.0589   -1.4309    1.0316 H   0  0  0  0  0  0  0  0  0  0  0  0
   -0.9424   -0.4108    0.0262 H   0  0  0  0  0  0  0  0  0  0  0  0
    3.9253    3.5963   -0.9216 H   0  0  0  0  0  0  0  0  0  0  0  0
    3.9184    3.6190    0.8851 H   0  0  0  0  0  0  0  0  0  0  0  0
    5.2775    4.2935   -0.0215 H   0  0  0  0  0  0  0  0  0  0  0  0
    5.4889   -5.9440   -4.1749 H   0  0  0  0  0  0  0  0  0  0  0  0
    6.9031   -4.8211   -4.0742 H   0  0  0  0  0  0  0  0  0  0  0  0
    6.9830   -6.2851   -5.0566 H   0  0  0  0  0  0  0  0  0  0  0  0
    7.6154   -8.8633   -2.6270 H   0  0  0  0  0  0  0  0  0  0  0  0
    9.1659   -7.9215   -2.5146 H   0  0  0  0  0  0  0  0  0  0  0  0
    9.0339   -9.5478   -1.8489 H   0  0  0  0  0  0  0  0  0  0  0  0
    6.2590   -0.0519    0.0294 H   0  0  0  0  0  0  0  0  0  0  0  0
    2.4826    1.9720    0.0130 H   0  0  0  0  0  0  0  0  0  0  0  0
    3.0341   -4.8782    0.1012 H   0  0  0  0  0  0  0  0  0  0  0  0
    5.5574   -4.5493   -2.2893 H   0  0  0  0  0  0  0  0  0  0  0  0
    5.9630   -5.2452    1.9214 H   0  0  0  0  0  0  0  0  0  0  0  0
    7.3986   -7.1971    1.4541 H   0  0  0  0  0  0  0  0  0  0  0  0
  1  2  1  0  0  0  0
  1 14  1  0  0  0  0
  2 26  1  0  0  0  0
  2 27  1  0  0  0  0
  2 28  1  0  0  0  0
  3 15  2  0  0  0  0
  4  5  1  0  0  0  0
  4 17  1  0  0  0  0
  5 29  1  0  0  0  0
  5 30  1  0  0  0  0
  5 31  1  0  0  0  0
  6  7  1  0  0  0  0
  6 23  1  0  0  0  0
  7 32  1  0  0  0  0
  7 33  1  0  0  0  0
  7 34  1  0  0  0  0
  8  9  1  0  0  0  0
  8 25  1  0  0  0  0
  9 35  1  0  0  0  0
  9 36  1  0  0  0  0
  9 37  1  0  0  0  0
 10 11  2  0  0  0  0
 10 12  1  0  0  0  0
 10 13  1  0  0  0  0
 11 14  1  0  0  0  0
 11 15  1  0  0  0  0
 12 16  1  0  0  0  0
 13 17  2  0  0  0  0
 13 38  1  0  0  0  0
 14 18  2  0  0  0  0
 15 19  1  0  0  0  0
 16 19  2  0  0  0  0
 16 20  1  0  0  0  0
 17 18  1  0  0  0  0
 18 39  1  0  0  0  0
 19 40  1  0  0  0  0
 20 21  2  0  0  0  0
 20 22  1  0  0  0  0
 21 23  1  0  0  0  0
 21 41  1  0  0  0  0
 22 24  2  0  0  0  0
 22 42  1  0  0  0  0
 23 25  2  0  0  0  0
 24 25  1  0  0  0  0
 24 43  1  0  0  0  0
M  END
>  <Mol_ID>
9761

>  <Formula>
C19H18O6

>  <MolWeight>
342.34262

>  <Cat>
E2246

>  <Name>
5,7,3',4'-Tetramethoxyflavone

>  <Synonyms>
N/A

>  <Target>
cAMP,  PKA, Wnt/beta-catenin

>  <Form>
free base

>  <CAS>
855-97-0

>  <URL>
https://www.selleckchem.com/products/5-7-3--4--tetramethoxyflavone.html

$$$$
