5,7-Dimethoxyflavone
 OpenBabel08302521243D

 35 37  0  0  0  0  0  0  0  0999 V2000
    2.2713    1.1817    0.0039 C   0  0  0  0  0  0  0  0  0  0  0  0
    2.6945   -0.1432   -0.0001 C   0  0  0  0  0  0  0  0  0  0  0  0
    1.7317   -1.1392    0.0072 C   0  0  0  0  0  0  0  0  0  0  0  0
    0.3709   -0.8102    0.0236 C   0  0  0  0  0  0  0  0  0  0  0  0
   -0.0748    0.5315    0.0512 C   0  0  0  0  0  0  0  0  0  0  0  0
    0.9010    1.5472    0.0291 C   0  0  0  0  0  0  0  0  0  0  0  0
   -0.4631   -1.9081   -0.0013 O   0  0  0  0  0  0  0  0  0  0  0  0
   -1.8164   -1.6938   -0.0483 C   0  0  0  0  0  0  0  0  0  0  0  0
   -2.3953   -0.4955    0.0057 C   0  0  0  0  0  0  0  0  0  0  0  0
   -1.5564    0.7047    0.1113 C   0  0  0  0  0  0  0  0  0  0  0  0
    3.9876   -0.5772   -0.0178 O   0  0  0  0  0  0  0  0  0  0  0  0
    5.0065    0.4164   -0.0333 C   0  0  0  0  0  0  0  0  0  0  0  0
    0.8338    2.9115    0.0156 O   0  0  0  0  0  0  0  0  0  0  0  0
   -0.3824    3.6256    0.0044 C   0  0  0  0  0  0  0  0  0  0  0  0
   -2.1540    1.7620    0.2506 O   0  0  0  0  0  0  0  0  0  0  0  0
   -2.6442   -2.8900   -0.2051 C   0  0  0  0  0  0  0  0  0  0  0  0
   -2.9606   -3.3452   -1.4910 C   0  0  0  0  0  0  0  0  0  0  0  0
   -3.8085   -4.4393   -1.6613 C   0  0  0  0  0  0  0  0  0  0  0  0
   -4.3429   -5.0853   -0.5481 C   0  0  0  0  0  0  0  0  0  0  0  0
   -4.0331   -4.6376    0.7364 C   0  0  0  0  0  0  0  0  0  0  0  0
   -3.1865   -3.5406    0.9098 C   0  0  0  0  0  0  0  0  0  0  0  0
    2.9991    1.9895   -0.0140 H   0  0  0  0  0  0  0  0  0  0  0  0
    2.0378   -2.1828   -0.0028 H   0  0  0  0  0  0  0  0  0  0  0  0
   -3.4678   -0.3495   -0.0270 H   0  0  0  0  0  0  0  0  0  0  0  0
    4.9495    1.0233   -0.9431 H   0  0  0  0  0  0  0  0  0  0  0  0
    4.9625    1.0429    0.8637 H   0  0  0  0  0  0  0  0  0  0  0  0
    5.9745   -0.0941   -0.0341 H   0  0  0  0  0  0  0  0  0  0  0  0
   -0.9773    3.3833   -0.8801 H   0  0  0  0  0  0  0  0  0  0  0  0
   -0.9106    3.5004    0.9527 H   0  0  0  0  0  0  0  0  0  0  0  0
   -0.1386    4.6906   -0.0692 H   0  0  0  0  0  0  0  0  0  0  0  0
   -2.5587   -2.8394   -2.3664 H   0  0  0  0  0  0  0  0  0  0  0  0
   -4.0570   -4.7818   -2.6625 H   0  0  0  0  0  0  0  0  0  0  0  0
   -5.0068   -5.9360   -0.6816 H   0  0  0  0  0  0  0  0  0  0  0  0
   -4.4575   -5.1386    1.6028 H   0  0  0  0  0  0  0  0  0  0  0  0
   -2.9634   -3.1917    1.9154 H   0  0  0  0  0  0  0  0  0  0  0  0
  1  2  2  0  0  0  0
  1 22  1  0  0  0  0
  2  3  1  0  0  0  0
  2 11  1  0  0  0  0
  3  4  2  0  0  0  0
  3 23  1  0  0  0  0
  4  5  1  0  0  0  0
  4  7  1  0  0  0  0
  5  6  2  0  0  0  0
  6  1  1  0  0  0  0
  6 13  1  0  0  0  0
  7  8  1  0  0  0  0
  8  9  2  0  0  0  0
  8 16  1  0  0  0  0
  9 10  1  0  0  0  0
  9 24  1  0  0  0  0
 10  5  1  0  0  0  0
 10 15  2  0  0  0  0
 11 12  1  0  0  0  0
 12 25  1  0  0  0  0
 12 26  1  0  0  0  0
 12 27  1  0  0  0  0
 13 14  1  0  0  0  0
 14 28  1  0  0  0  0
 14 29  1  0  0  0  0
 14 30  1  0  0  0  0
 16 17  2  0  0  0  0
 17 18  1  0  0  0  0
 17 31  1  0  0  0  0
 18 19  2  0  0  0  0
 18 32  1  0  0  0  0
 19 20  1  0  0  0  0
 19 33  1  0  0  0  0
 20 21  2  0  0  0  0
 20 34  1  0  0  0  0
 21 16  1  0  0  0  0
 21 35  1  0  0  0  0
M  END
>  <Mol_ID>
5115

>  <Formula>
C17H14O4

>  <MolWeight>
282.29066

>  <Cat>
S3227

>  <Name>
5,7-Dimethoxyflavone

>  <Synonyms>
5,7-DMF

>  <Target>
BCRP,P450 (e.g. CYP17)

>  <Form>
free base

>  <CAS>
21392-57-4

>  <URL>
http://www.selleckchem.com/products/5-7-dimethoxyflavone.html

$$$$
