5-Methoxysalicylic acid
 OpenBabel08302520393D

 20 20  0  0  0  0  0  0  0  0999 V2000
    0.1850   -1.2841    0.0275 C   0  0  0  0  0  0  0  0  0  0  0  0
   -1.2205   -1.2667   -0.0146 C   0  0  0  0  0  0  0  0  0  0  0  0
    0.8922   -0.0725    0.0398 C   0  0  0  0  0  0  0  0  0  0  0  0
    0.9482   -2.5541    0.0080 C   0  0  0  0  0  0  0  0  0  0  0  0
   -1.9045   -0.0475   -0.0089 C   0  0  0  0  0  0  0  0  0  0  0  0
    0.2118    1.1398    0.0400 C   0  0  0  0  0  0  0  0  0  0  0  0
    2.2594    0.0010    0.0500 O   0  0  0  0  0  0  0  0  0  0  0  0
    0.3221   -3.6166    0.5489 O   0  0  0  0  0  0  0  0  0  0  0  0
    2.0918   -2.6039   -0.4247 O   0  0  0  0  0  0  0  0  0  0  0  0
   -1.1823    1.1492    0.0185 C   0  0  0  0  0  0  0  0  0  0  0  0
   -3.2621    0.1134   -0.0385 O   0  0  0  0  0  0  0  0  0  0  0  0
   -4.0627   -1.0612   -0.0504 C   0  0  0  0  0  0  0  0  0  0  0  0
   -1.7676   -2.1989   -0.0879 H   0  0  0  0  0  0  0  0  0  0  0  0
    0.7651    2.0757    0.0453 H   0  0  0  0  0  0  0  0  0  0  0  0
    2.6269   -0.8928   -0.1318 H   0  0  0  0  0  0  0  0  0  0  0  0
   -0.4759   -3.4159    1.0696 H   0  0  0  0  0  0  0  0  0  0  0  0
   -1.7116    2.0998    0.0100 H   0  0  0  0  0  0  0  0  0  0  0  0
   -3.8764   -1.6554   -0.9508 H   0  0  0  0  0  0  0  0  0  0  0  0
   -3.9033   -1.6552    0.8556 H   0  0  0  0  0  0  0  0  0  0  0  0
   -5.1121   -0.7514   -0.0662 H   0  0  0  0  0  0  0  0  0  0  0  0
  1  2  2  0  0  0  0
  1  3  1  0  0  0  0
  1  4  1  0  0  0  0
  2  5  1  0  0  0  0
  2 13  1  0  0  0  0
  3  6  2  0  0  0  0
  3  7  1  0  0  0  0
  4  8  1  0  0  0  0
  4  9  2  0  0  0  0
  5 10  2  0  0  0  0
  5 11  1  0  0  0  0
  6 10  1  0  0  0  0
  6 14  1  0  0  0  0
  7 15  1  0  0  0  0
  8 16  1  0  0  0  0
 10 17  1  0  0  0  0
 11 12  1  0  0  0  0
 12 18  1  0  0  0  0
 12 19  1  0  0  0  0
 12 20  1  0  0  0  0
M  END
>  <Mol_ID>
3658

>  <Formula>
C8H8O4

>  <MolWeight>
168.14672

>  <Cat>
S6319

>  <Name>
5-Methoxysalicylic acid

>  <Synonyms>
N/A

>  <Target>
Others

>  <Form>
free base

>  <CAS>
2612-02-4

>  <URL>
http://www.selleck.cn/products/5-methoxysalicylic-acid.html

$$$$
