6-Benzylaminopurine.cdx
 OpenBabel08302522063D

 28 30  0  0  0  0  0  0  0  0999 V2000
    1.3235   -0.1582   -0.5338 C   0  0  0  0  0  0  0  0  0  0  0  0
    0.5900   -1.2691   -0.1170 C   0  0  0  0  0  0  0  0  0  0  0  0
   -0.6688   -1.0992    0.4505 C   0  0  0  0  0  0  0  0  0  0  0  0
   -1.1946    0.1838    0.6056 C   0  0  0  0  0  0  0  0  0  0  0  0
   -0.4682    1.3099    0.1856 C   0  0  0  0  0  0  0  0  0  0  0  0
    0.7992    1.1270   -0.3827 C   0  0  0  0  0  0  0  0  0  0  0  0
   -1.0377    2.6913    0.4072 C   0  0  0  0  0  0  0  0  0  0  0  0
   -0.6296    3.1424    1.7268 N   0  0  0  0  0  0  0  0  0  0  0  0
   -1.4365    4.0693    2.3619 C   0  0  0  0  0  0  0  0  0  0  0  0
   -2.6217    4.4511    1.8428 N   0  0  0  0  0  0  0  0  0  0  0  0
   -3.3941    5.3165    2.5319 C   0  0  0  0  0  0  0  0  0  0  0  0
   -3.1458    5.8815    3.7170 N   0  0  0  0  0  0  0  0  0  0  0  0
   -1.9675    5.4892    4.2317 C   0  0  0  0  0  0  0  0  0  0  0  0
   -1.1098    4.6117    3.5935 C   0  0  0  0  0  0  0  0  0  0  0  0
   -1.4652    5.8795    5.4441 N   0  0  0  0  0  0  0  0  0  0  0  0
   -0.3244    5.2371    5.5608 C   0  0  0  0  0  0  0  0  0  0  0  0
   -0.0669    4.4590    4.4653 N   0  0  0  0  0  0  0  0  0  0  0  0
    2.3082   -0.2956   -0.9733 H   0  0  0  0  0  0  0  0  0  0  0  0
    1.0017   -2.2681   -0.2304 H   0  0  0  0  0  0  0  0  0  0  0  0
   -1.2440   -1.9615    0.7790 H   0  0  0  0  0  0  0  0  0  0  0  0
   -2.1743    0.3094    1.0647 H   0  0  0  0  0  0  0  0  0  0  0  0
    1.3853    1.9830   -0.7076 H   0  0  0  0  0  0  0  0  0  0  0  0
   -0.6787    3.3835   -0.3642 H   0  0  0  0  0  0  0  0  0  0  0  0
   -2.1276    2.6269    0.2979 H   0  0  0  0  0  0  0  0  0  0  0  0
    0.3631    3.3002    1.8260 H   0  0  0  0  0  0  0  0  0  0  0  0
   -4.3369    5.5817    2.0635 H   0  0  0  0  0  0  0  0  0  0  0  0
    0.3459    5.2895    6.4091 H   0  0  0  0  0  0  0  0  0  0  0  0
    0.7326    3.8547    4.3375 H   0  0  0  0  0  0  0  0  0  0  0  0
  1  2  2  0  0  0  0
  1 18  1  0  0  0  0
  2  3  1  0  0  0  0
  2 19  1  0  0  0  0
  3  4  2  0  0  0  0
  3 20  1  0  0  0  0
  4  5  1  0  0  0  0
  4 21  1  0  0  0  0
  5  6  2  0  0  0  0
  5  7  1  0  0  0  0
  6  1  1  0  0  0  0
  6 22  1  0  0  0  0
  7  8  1  0  0  0  0
  7 23  1  0  0  0  0
  7 24  1  0  0  0  0
  8  9  1  0  0  0  0
  8 25  1  0  0  0  0
  9 10  2  0  0  0  0
 10 11  1  0  0  0  0
 11 12  2  0  0  0  0
 11 26  1  0  0  0  0
 12 13  1  0  0  0  0
 13 14  2  0  0  0  0
 13 15  1  0  0  0  0
 14  9  1  0  0  0  0
 15 16  2  0  0  0  0
 16 17  1  0  0  0  0
 16 27  1  0  0  0  0
 17 14  1  0  0  0  0
 17 28  1  0  0  0  0
M  END
>  <Mol_ID>
1477

>  <Formula>
C12H11N5

>  <MolWeight>
225.24924

>  <Cat>
S4511

>  <Name>
6-Benzylaminopurine

>  <Synonyms>
N/A

>  <Target>
ROS

>  <Form>
free base

>  <CAS>
1214-39-7

>  <URL>
http://selleckchem.com/products/6-benzylaminopurine.html

$$$$
