6-Chloro-7-hydroxy-4-methylcoumarin
 OpenBabel08302520343D

 21 22  0  0  0  0  0  0  0  0999 V2000
    0.1912   -0.5474   -0.0182 C   0  0  0  0  0  0  0  0  0  0  0  0
    0.0659    0.8467    0.0068 C   0  0  0  0  0  0  0  0  0  0  0  0
    1.4318   -1.1870   -0.0237 C   0  0  0  0  0  0  0  0  0  0  0  0
   -0.9376   -1.3912   -0.0341 O   0  0  0  0  0  0  0  0  0  0  0  0
   -1.2843    1.4304   -0.0084 C   0  0  0  0  0  0  0  0  0  0  0  0
    1.2496    1.5968    0.0420 C   0  0  0  0  0  0  0  0  0  0  0  0
    2.5829   -0.4157    0.0043 C   0  0  0  0  0  0  0  0  0  0  0  0
   -2.2185   -0.8714   -0.0148 C   0  0  0  0  0  0  0  0  0  0  0  0
   -2.3347    0.5944   -0.0176 C   0  0  0  0  0  0  0  0  0  0  0  0
   -1.5238    2.9127   -0.0233 C   0  0  0  0  0  0  0  0  0  0  0  0
    2.5038    0.9711    0.0406 C   0  0  0  0  0  0  0  0  0  0  0  0
    3.7852   -1.0564   -0.0038 O   0  0  0  0  0  0  0  0  0  0  0  0
   -3.2183   -1.5791   -0.0047 O   0  0  0  0  0  0  0  0  0  0  0  0
    1.4961   -2.2703   -0.0483 H   0  0  0  0  0  0  0  0  0  0  0  0
    1.2384    2.6814    0.0729 H   0  0  0  0  0  0  0  0  0  0  0  0
   -3.3555    0.9624   -0.0296 H   0  0  0  0  0  0  0  0  0  0  0  0
   -2.0841    3.1955   -0.9217 H   0  0  0  0  0  0  0  0  0  0  0  0
   -2.1062    3.2113    0.8556 H   0  0  0  0  0  0  0  0  0  0  0  0
   -0.6166    3.5176   -0.0192 H   0  0  0  0  0  0  0  0  0  0  0  0
    3.3991    1.5852    0.0678 H   0  0  0  0  0  0  0  0  0  0  0  0
    4.4953   -0.3940    0.0136 H   0  0  0  0  0  0  0  0  0  0  0  0
  1  2  1  0  0  0  0
  1  3  2  0  0  0  0
  1  4  1  0  0  0  0
  2  5  1  0  0  0  0
  2  6  2  0  0  0  0
  3  7  1  0  0  0  0
  3 14  1  0  0  0  0
  4  8  1  0  0  0  0
  5  9  2  0  0  0  0
  5 10  1  0  0  0  0
  6 11  1  0  0  0  0
  6 15  1  0  0  0  0
  7 12  1  0  0  0  0
  7 11  2  0  0  0  0
  8 13  2  0  0  0  0
  8  9  1  0  0  0  0
  9 16  1  0  0  0  0
 10 17  1  0  0  0  0
 10 18  1  0  0  0  0
 10 19  1  0  0  0  0
 11 20  1  0  0  0  0
 12 21  1  0  0  0  0
M  END
>  <Mol_ID>
3401

>  <Formula>
C10H7ClO3

>  <MolWeight>
210.61378

>  <Cat>
S5760

>  <Name>
6-Chloro-7-hydroxy-4-methylcoumarin

>  <Synonyms>
N/A

>  <Target>
Others

>  <Form>
Free Base

>  <CAS>
19492-02-5

>  <URL>
http://www.selleckchem.com/products/6-chloro-7-hydroxy-4-methylcoumarin.html

$$$$
