6-Hydroxyindole
 OpenBabel08302521293D

 17 18  0  0  0  0  0  0  0  0999 V2000
   -1.5532    1.0847    0.0365 N   0  0  0  0  0  0  0  0  0  0  0  0
   -2.3896    0.0002    0.0648 C   0  0  0  0  0  0  0  0  0  0  0  0
   -1.6096   -1.1339    0.0582 C   0  0  0  0  0  0  0  0  0  0  0  0
   -0.2488   -0.7245    0.0134 C   0  0  0  0  0  0  0  0  0  0  0  0
    0.9823   -1.4095   -0.0189 C   0  0  0  0  0  0  0  0  0  0  0  0
    2.1760   -0.6799   -0.0758 C   0  0  0  0  0  0  0  0  0  0  0  0
    2.1419    0.7110   -0.0943 C   0  0  0  0  0  0  0  0  0  0  0  0
    0.9413    1.4186   -0.0512 C   0  0  0  0  0  0  0  0  0  0  0  0
   -0.2405    0.6714   -0.0021 C   0  0  0  0  0  0  0  0  0  0  0  0
    3.2943    1.4423   -0.1598 O   0  0  0  0  0  0  0  0  0  0  0  0
   -1.8484    2.0512    0.0357 H   0  0  0  0  0  0  0  0  0  0  0  0
   -3.4631    0.1286    0.0883 H   0  0  0  0  0  0  0  0  0  0  0  0
   -1.9763   -2.1514    0.0772 H   0  0  0  0  0  0  0  0  0  0  0  0
    1.0048   -2.4953   -0.0056 H   0  0  0  0  0  0  0  0  0  0  0  0
    3.1182   -1.2181   -0.1049 H   0  0  0  0  0  0  0  0  0  0  0  0
    0.9341    2.5028   -0.0637 H   0  0  0  0  0  0  0  0  0  0  0  0
    4.0435    0.8286   -0.2305 H   0  0  0  0  0  0  0  0  0  0  0  0
  1  2  1  0  0  0  0
  1  9  1  0  0  0  0
  1 11  1  0  0  0  0
  2  3  2  0  0  0  0
  2 12  1  0  0  0  0
  3  4  1  0  0  0  0
  3 13  1  0  0  0  0
  4  5  1  0  0  0  0
  4  9  2  0  0  0  0
  5  6  2  0  0  0  0
  5 14  1  0  0  0  0
  6  7  1  0  0  0  0
  6 15  1  0  0  0  0
  7  8  2  0  0  0  0
  7 10  1  0  0  0  0
  8  9  1  0  0  0  0
  8 16  1  0  0  0  0
 10 17  1  0  0  0  0
M  END
>  <Mol_ID>
5480

>  <Formula>
C8H7NO

>  <MolWeight>
133.14728

>  <Cat>
S3315

>  <Name>
6-Hydroxyindole

>  <Synonyms>
1H-indol-6-ol

>  <Target>
OATP

>  <Form>
Free Base

>  <CAS>
2380-86-1

>  <URL>
https://www.selleckchem.com/products/6-hydroxyindole.html

$$$$
