6-Methylflavone
 OpenBabel08302521373D

 30 32  0  0  0  0  0  0  0  0999 V2000
    1.3643    2.3661   -0.0529 O   0  0  0  0  0  0  0  0  0  0  0  0
   -3.6462    0.9569   -0.0082 C   0  0  0  0  0  0  0  0  0  0  0  0
    0.1791   -1.0202   -0.0191 C   0  0  0  0  0  0  0  0  0  0  0  0
    0.1015    0.3682   -0.0260 C   0  0  0  0  0  0  0  0  0  0  0  0
    1.3706   -1.7002   -0.0221 O   0  0  0  0  0  0  0  0  0  0  0  0
   -0.9901   -1.7781   -0.0064 C   0  0  0  0  0  0  0  0  0  0  0  0
    1.3485    1.1428   -0.0293 C   0  0  0  0  0  0  0  0  0  0  0  0
   -1.1386    1.0130   -0.0227 C   0  0  0  0  0  0  0  0  0  0  0  0
    2.5525   -0.9704   -0.0024 C   0  0  0  0  0  0  0  0  0  0  0  0
   -2.2346   -1.1404    0.0007 C   0  0  0  0  0  0  0  0  0  0  0  0
    2.5998    0.3707    0.0033 C   0  0  0  0  0  0  0  0  0  0  0  0
   -2.3186    0.2587   -0.0086 C   0  0  0  0  0  0  0  0  0  0  0  0
    3.7796   -1.7989    0.0405 C   0  0  0  0  0  0  0  0  0  0  0  0
    3.7550   -3.0638    0.6506 C   0  0  0  0  0  0  0  0  0  0  0  0
    4.9863   -1.3685   -0.5360 C   0  0  0  0  0  0  0  0  0  0  0  0
    4.9002   -3.8641    0.6964 C   0  0  0  0  0  0  0  0  0  0  0  0
    6.1327   -2.1668   -0.4863 C   0  0  0  0  0  0  0  0  0  0  0  0
    6.0893   -3.4132    0.1303 C   0  0  0  0  0  0  0  0  0  0  0  0
   -3.7299    1.6068    0.8688 H   0  0  0  0  0  0  0  0  0  0  0  0
   -3.7532    1.5602   -0.9153 H   0  0  0  0  0  0  0  0  0  0  0  0
   -4.4754    0.2429    0.0220 H   0  0  0  0  0  0  0  0  0  0  0  0
   -0.9370   -2.8636   -0.0007 H   0  0  0  0  0  0  0  0  0  0  0  0
   -1.1811    2.1008   -0.0288 H   0  0  0  0  0  0  0  0  0  0  0  0
   -3.1393   -1.7451    0.0134 H   0  0  0  0  0  0  0  0  0  0  0  0
    3.5123    0.9505    0.0410 H   0  0  0  0  0  0  0  0  0  0  0  0
    2.8408   -3.4395    1.1064 H   0  0  0  0  0  0  0  0  0  0  0  0
    5.0539   -0.4092   -1.0434 H   0  0  0  0  0  0  0  0  0  0  0  0
    4.8611   -4.8389    1.1760 H   0  0  0  0  0  0  0  0  0  0  0  0
    7.0583   -1.8123   -0.9335 H   0  0  0  0  0  0  0  0  0  0  0  0
    6.9804   -4.0346    0.1662 H   0  0  0  0  0  0  0  0  0  0  0  0
  1  7  2  0  0  0  0
  2 12  1  0  0  0  0
  2 19  1  0  0  0  0
  2 20  1  0  0  0  0
  2 21  1  0  0  0  0
  3  4  2  0  0  0  0
  3  5  1  0  0  0  0
  3  6  1  0  0  0  0
  4  7  1  0  0  0  0
  4  8  1  0  0  0  0
  5  9  1  0  0  0  0
  6 10  2  0  0  0  0
  6 22  1  0  0  0  0
  7 11  1  0  0  0  0
  8 12  2  0  0  0  0
  8 23  1  0  0  0  0
  9 11  2  0  0  0  0
  9 13  1  0  0  0  0
 10 12  1  0  0  0  0
 10 24  1  0  0  0  0
 11 25  1  0  0  0  0
 13 14  2  0  0  0  0
 13 15  1  0  0  0  0
 14 16  1  0  0  0  0
 14 26  1  0  0  0  0
 15 17  2  0  0  0  0
 15 27  1  0  0  0  0
 16 18  2  0  0  0  0
 16 28  1  0  0  0  0
 17 18  1  0  0  0  0
 17 29  1  0  0  0  0
 18 30  1  0  0  0  0
M  END
>  <Mol_ID>
7414

>  <Formula>
C16H12O2

>  <MolWeight>
236.26528

>  <Cat>
E4513

>  <Name>
6-Methylflavone

>  <Synonyms>
6-Methylflavone

>  <Target>
GABA Receptor

>  <Form>
Free base

>  <CAS>
29976-75-8

>  <URL>
https://www.selleckchem.com/products/6-methylflavone.html

$$$$
