680C91
 OpenBabel08302521263D

 29 31  0  0  0  0  0  0  0  0999 V2000
    1.7949    1.2916   -0.0052 N   0  0  0  0  0  0  0  0  0  0  0  0
    2.8570    0.4288    0.0130 C   0  0  0  0  0  0  0  0  0  0  0  0
    2.3641   -0.8590    0.0243 C   0  0  0  0  0  0  0  0  0  0  0  0
    0.9343   -0.7695    0.0041 C   0  0  0  0  0  0  0  0  0  0  0  0
   -0.1249   -1.7070   -0.0028 C   0  0  0  0  0  0  0  0  0  0  0  0
   -1.4504   -1.2534   -0.0104 C   0  0  0  0  0  0  0  0  0  0  0  0
   -1.7226    0.1078   -0.0136 C   0  0  0  0  0  0  0  0  0  0  0  0
   -0.7069    1.0607   -0.0148 C   0  0  0  0  0  0  0  0  0  0  0  0
    0.6118    0.5914   -0.0065 C   0  0  0  0  0  0  0  0  0  0  0  0
    3.1498   -2.0554    0.0519 C   0  0  0  0  0  0  0  0  0  0  0  0
    4.4940   -2.1122    0.0705 C   0  0  0  0  0  0  0  0  0  0  0  0
    6.5227   -3.3842    0.7186 C   0  0  0  0  0  0  0  0  0  0  0  0
    5.2752   -3.3554    0.0956 C   0  0  0  0  0  0  0  0  0  0  0  0
    4.8627   -4.5280   -0.5417 C   0  0  0  0  0  0  0  0  0  0  0  0
    5.6737   -5.6607   -0.5089 C   0  0  0  0  0  0  0  0  0  0  0  0
    6.8879   -5.5831    0.1520 C   0  0  0  0  0  0  0  0  0  0  0  0
    7.3354   -4.4681    0.7655 N   0  0  0  0  0  0  0  0  0  0  0  0
   -2.9979    0.5199   -0.0145 F   0  0  0  0  0  0  0  0  0  0  0  0
    1.8652    2.3006   -0.0138 H   0  0  0  0  0  0  0  0  0  0  0  0
    3.8667    0.8154    0.0186 H   0  0  0  0  0  0  0  0  0  0  0  0
    0.0790   -2.7737    0.0003 H   0  0  0  0  0  0  0  0  0  0  0  0
   -2.2737   -1.9608   -0.0117 H   0  0  0  0  0  0  0  0  0  0  0  0
   -0.9427    2.1182   -0.0189 H   0  0  0  0  0  0  0  0  0  0  0  0
    2.5889   -2.9862    0.0714 H   0  0  0  0  0  0  0  0  0  0  0  0
    5.0833   -1.1991    0.0810 H   0  0  0  0  0  0  0  0  0  0  0  0
    6.9221   -2.5066    1.2211 H   0  0  0  0  0  0  0  0  0  0  0  0
    3.9203   -4.5706   -1.0801 H   0  0  0  0  0  0  0  0  0  0  0  0
    5.3659   -6.5795   -0.9952 H   0  0  0  0  0  0  0  0  0  0  0  0
    7.5541   -6.4394    0.2020 H   0  0  0  0  0  0  0  0  0  0  0  0
  1  2  1  0  0  0  0
  1  9  1  0  0  0  0
  1 19  1  0  0  0  0
  2  3  2  0  0  0  0
  2 20  1  0  0  0  0
  3  4  1  0  0  0  0
  3 10  1  0  0  0  0
  4  5  1  0  0  0  0
  4  9  2  0  0  0  0
  5  6  2  0  0  0  0
  5 21  1  0  0  0  0
  6  7  1  0  0  0  0
  6 22  1  0  0  0  0
  7  8  2  0  0  0  0
  7 18  1  0  0  0  0
  8  9  1  0  0  0  0
  8 23  1  0  0  0  0
 10 11  2  0  0  0  0
 10 24  1  0  0  0  0
 11 13  1  0  0  0  0
 11 25  1  0  0  0  0
 12 13  2  0  0  0  0
 12 17  1  0  0  0  0
 12 26  1  0  0  0  0
 13 14  1  0  0  0  0
 14 15  2  0  0  0  0
 14 27  1  0  0  0  0
 15 16  1  0  0  0  0
 15 28  1  0  0  0  0
 16 17  2  0  0  0  0
 16 29  1  0  0  0  0
M  END
>  <Mol_ID>
5237

>  <Formula>
C15H11FN2

>  <MolWeight>
238.2596432

>  <Cat>
S8997

>  <Name>
680C91

>  <Synonyms>
N/A

>  <Target>
IDO/TDO

>  <Form>
free base

>  <CAS>
163239-22-3

>  <URL>
http://www.selleckchem.com/products/680c91.html

$$$$
