7-Ethoxy-4-Methylcoumarin
 OpenBabel08302521373D

 27 28  0  0  0  0  0  0  0  0999 V2000
   -0.3635   -3.0167   -0.0177 C   0  0  0  0  0  0  0  0  0  0  0  0
    3.7842    2.1010   -0.0926 O   0  0  0  0  0  0  0  0  0  0  0  0
    3.5487    3.3673   -0.7196 C   0  0  0  0  0  0  0  0  0  0  0  0
    4.8426    4.1782   -0.8147 C   0  0  0  0  0  0  0  0  0  0  0  0
   -3.2241    0.8672    0.0038 O   0  0  0  0  0  0  0  0  0  0  0  0
    0.5714   -0.6215    0.0651 C   0  0  0  0  0  0  0  0  0  0  0  0
    0.3310    0.7526    0.1391 C   0  0  0  0  0  0  0  0  0  0  0  0
   -0.5751   -1.5356    0.0221 C   0  0  0  0  0  0  0  0  0  0  0  0
    1.9086   -1.0329    0.0206 C   0  0  0  0  0  0  0  0  0  0  0  0
    1.3585    1.7024    0.1452 C   0  0  0  0  0  0  0  0  0  0  0  0
   -0.9812    1.2714    0.1599 O   0  0  0  0  0  0  0  0  0  0  0  0
   -1.8139   -1.0053    0.0072 C   0  0  0  0  0  0  0  0  0  0  0  0
    2.9494   -0.0894   -0.0019 C   0  0  0  0  0  0  0  0  0  0  0  0
    2.6755    1.2846    0.0215 C   0  0  0  0  0  0  0  0  0  0  0  0
   -2.0766    0.4381    0.0511 C   0  0  0  0  0  0  0  0  0  0  0  0
    0.1999   -3.3064   -0.9114 H   0  0  0  0  0  0  0  0  0  0  0  0
    0.1817   -3.3533    0.8707 H   0  0  0  0  0  0  0  0  0  0  0  0
   -1.3128   -3.5627   -0.0414 H   0  0  0  0  0  0  0  0  0  0  0  0
    3.1078    3.2349   -1.7185 H   0  0  0  0  0  0  0  0  0  0  0  0
    2.8485    3.9478   -0.1097 H   0  0  0  0  0  0  0  0  0  0  0  0
    5.6209    3.6760   -1.4008 H   0  0  0  0  0  0  0  0  0  0  0  0
    4.6520    5.1550   -1.2760 H   0  0  0  0  0  0  0  0  0  0  0  0
    5.2639    4.3485    0.1823 H   0  0  0  0  0  0  0  0  0  0  0  0
    2.1732   -2.0868   -0.0241 H   0  0  0  0  0  0  0  0  0  0  0  0
    1.0816    2.7493    0.2319 H   0  0  0  0  0  0  0  0  0  0  0  0
   -2.6998   -1.6229   -0.0392 H   0  0  0  0  0  0  0  0  0  0  0  0
    3.9787   -0.4279   -0.0735 H   0  0  0  0  0  0  0  0  0  0  0  0
  1  8  1  0  0  0  0
  1 16  1  0  0  0  0
  1 17  1  0  0  0  0
  1 18  1  0  0  0  0
  2  3  1  0  0  0  0
  2 14  1  0  0  0  0
  3  4  1  0  0  0  0
  3 19  1  0  0  0  0
  3 20  1  0  0  0  0
  4 21  1  0  0  0  0
  4 22  1  0  0  0  0
  4 23  1  0  0  0  0
  5 15  2  0  0  0  0
  6  7  2  0  0  0  0
  6  8  1  0  0  0  0
  6  9  1  0  0  0  0
  7 10  1  0  0  0  0
  7 11  1  0  0  0  0
  8 12  2  0  0  0  0
  9 13  2  0  0  0  0
  9 24  1  0  0  0  0
 10 14  2  0  0  0  0
 10 25  1  0  0  0  0
 11 15  1  0  0  0  0
 12 15  1  0  0  0  0
 12 26  1  0  0  0  0
 13 14  1  0  0  0  0
 13 27  1  0  0  0  0
M  END
>  <Mol_ID>
7459

>  <Formula>
C12H12O3

>  <MolWeight>
204.22188

>  <Cat>
E4563

>  <Name>
7-Ethoxy-4-Methylcoumarin

>  <Synonyms>
7-Ethoxy-4-Methylcoumarin

>  <Target>
Others

>  <Form>
Free base

>  <CAS>
87-05-8

>  <URL>
https://www.selleckchem.com/products/7-ethoxy-4-methylcoumarin.html

$$$$
