7-Hydroxyisoflavone
 OpenBabel08302521373D

 28 30  0  0  0  0  0  0  0  0999 V2000
   -2.2969    1.8654   -0.0561 O   0  0  0  0  0  0  0  0  0  0  0  0
    3.6948   -0.2188   -0.0077 O   0  0  0  0  0  0  0  0  0  0  0  0
   -0.3794    0.5067   -0.0054 C   0  0  0  0  0  0  0  0  0  0  0  0
    0.1053   -0.7998   -0.0213 C   0  0  0  0  0  0  0  0  0  0  0  0
   -1.8361    0.7295   -0.0343 C   0  0  0  0  0  0  0  0  0  0  0  0
    0.5072    1.5900    0.0294 C   0  0  0  0  0  0  0  0  0  0  0  0
   -0.7198   -1.8972   -0.0449 O   0  0  0  0  0  0  0  0  0  0  0  0
    1.4806   -1.0311   -0.0170 C   0  0  0  0  0  0  0  0  0  0  0  0
   -2.6919   -0.4858   -0.0406 C   0  0  0  0  0  0  0  0  0  0  0  0
    1.8846    1.3599    0.0341 C   0  0  0  0  0  0  0  0  0  0  0  0
   -2.0770   -1.6781   -0.0443 C   0  0  0  0  0  0  0  0  0  0  0  0
    2.3583    0.0501    0.0044 C   0  0  0  0  0  0  0  0  0  0  0  0
   -4.1565   -0.3889   -0.0389 C   0  0  0  0  0  0  0  0  0  0  0  0
   -4.8602   -0.3481    1.1718 C   0  0  0  0  0  0  0  0  0  0  0  0
   -4.8647   -0.3069   -1.2445 C   0  0  0  0  0  0  0  0  0  0  0  0
   -6.2496   -0.2033    1.1758 C   0  0  0  0  0  0  0  0  0  0  0  0
   -6.2541   -0.1593   -1.2376 C   0  0  0  0  0  0  0  0  0  0  0  0
   -6.9449   -0.1015   -0.0280 C   0  0  0  0  0  0  0  0  0  0  0  0
    4.1858    0.6197   -0.0313 H   0  0  0  0  0  0  0  0  0  0  0  0
    0.1258    2.6092    0.0506 H   0  0  0  0  0  0  0  0  0  0  0  0
    1.8696   -2.0451   -0.0348 H   0  0  0  0  0  0  0  0  0  0  0  0
    2.5643    2.2063    0.0593 H   0  0  0  0  0  0  0  0  0  0  0  0
   -2.6006   -2.6270   -0.0482 H   0  0  0  0  0  0  0  0  0  0  0  0
   -4.3306   -0.4057    2.1198 H   0  0  0  0  0  0  0  0  0  0  0  0
   -4.3393   -0.3339   -2.1965 H   0  0  0  0  0  0  0  0  0  0  0  0
   -6.7874   -0.1531    2.1190 H   0  0  0  0  0  0  0  0  0  0  0  0
   -6.7959   -0.0723   -2.1761 H   0  0  0  0  0  0  0  0  0  0  0  0
   -8.0236    0.0335   -0.0234 H   0  0  0  0  0  0  0  0  0  0  0  0
  1  5  2  0  0  0  0
  2 12  1  0  0  0  0
  2 19  1  0  0  0  0
  3  4  2  0  0  0  0
  3  5  1  0  0  0  0
  3  6  1  0  0  0  0
  4  7  1  0  0  0  0
  4  8  1  0  0  0  0
  5  9  1  0  0  0  0
  6 10  2  0  0  0  0
  6 20  1  0  0  0  0
  7 11  1  0  0  0  0
  8 12  2  0  0  0  0
  8 21  1  0  0  0  0
  9 11  2  0  0  0  0
  9 13  1  0  0  0  0
 10 12  1  0  0  0  0
 10 22  1  0  0  0  0
 11 23  1  0  0  0  0
 13 14  2  0  0  0  0
 13 15  1  0  0  0  0
 14 16  1  0  0  0  0
 14 24  1  0  0  0  0
 15 17  2  0  0  0  0
 15 25  1  0  0  0  0
 16 18  2  0  0  0  0
 16 26  1  0  0  0  0
 17 18  1  0  0  0  0
 17 27  1  0  0  0  0
 18 28  1  0  0  0  0
M  END
>  <Mol_ID>
7451

>  <Formula>
C15H10O3

>  <MolWeight>
238.2381

>  <Cat>
E4555

>  <Name>
7-Hydroxyisoflavone

>  <Synonyms>
7-Hydroxyisoflavone

>  <Target>
Others

>  <Form>
Free base

>  <CAS>
13057-72-2

>  <URL>
https://www.selleckchem.com/products/7-hydroxyisoflavone.html

$$$$
