7-Hydroxyaristolochic acid A
 OpenBabel08302521573D

 37 40  0  0  0  0  0  0  0  0999 V2000
    1.1343   -0.0846   -0.3933 N   0  3  0  0  0  0  0  0  0  0  0  0
    0.7271    0.6722   -1.2893 O   0  5  0  0  0  0  0  0  0  0  0  0
    0.4641   -0.9567    0.1742 O   0  0  0  0  0  0  0  0  0  0  0  0
    1.1593    2.5971    0.9118 C   0  0  0  0  0  0  0  0  0  0  0  0
    0.4260    3.6346    0.4598 O   0  0  0  0  0  0  0  0  0  0  0  0
    0.7575    1.7935    1.7325 O   0  0  0  0  0  0  0  0  0  0  0  0
    4.5347   -3.6088   -0.3538 O   0  0  0  0  0  0  0  0  0  0  0  0
    5.1162   -4.8999   -0.4664 C   0  0  0  0  0  0  0  0  0  0  0  0
    7.4549   -3.7038   -0.0453 O   0  0  0  0  0  0  0  0  0  0  0  0
    4.6248    1.2343    0.0427 C   0  0  0  0  0  0  0  0  0  0  0  0
    3.1979    1.2596    0.1207 C   0  0  0  0  0  0  0  0  0  0  0  0
    5.3483   -0.0331    0.0185 C   0  0  0  0  0  0  0  0  0  0  0  0
    5.2506    2.5021   -0.0080 C   0  0  0  0  0  0  0  0  0  0  0  0
    2.5575   -0.0006   -0.0707 C   0  0  0  0  0  0  0  0  0  0  0  0
    2.5454    2.5353    0.3806 C   0  0  0  0  0  0  0  0  0  0  0  0
    4.6519   -1.2631   -0.1105 C   0  0  0  0  0  0  0  0  0  0  0  0
    6.7531   -0.1376    0.1567 C   0  0  0  0  0  0  0  0  0  0  0  0
    4.5828    3.6986    0.1310 C   0  0  0  0  0  0  0  0  0  0  0  0
    6.5825    2.7365   -0.2314 O   0  0  0  0  0  0  0  0  0  0  0  0
    3.2568   -1.2118   -0.1909 C   0  0  0  0  0  0  0  0  0  0  0  0
    3.2417    3.7500    0.3792 C   0  0  0  0  0  0  0  0  0  0  0  0
    5.3481   -2.5144   -0.1685 C   0  0  0  0  0  0  0  0  0  0  0  0
    7.4366   -1.3539    0.1407 C   0  0  0  0  0  0  0  0  0  0  0  0
    5.3891    4.7892    0.0491 O   0  0  0  0  0  0  0  0  0  0  0  0
    6.6579    4.1708   -0.2093 C   0  0  0  0  0  0  0  0  0  0  0  0
    6.7401   -2.5373   -0.0313 C   0  0  0  0  0  0  0  0  0  0  0  0
    0.7991    4.1210   -0.2979 H   0  0  0  0  0  0  0  0  0  0  0  0
    5.8088   -4.9584   -1.3103 H   0  0  0  0  0  0  0  0  0  0  0  0
    5.5819   -5.2050    0.4763 H   0  0  0  0  0  0  0  0  0  0  0  0
    4.3066   -5.6088   -0.6693 H   0  0  0  0  0  0  0  0  0  0  0  0
    8.3970   -3.5078    0.0830 H   0  0  0  0  0  0  0  0  0  0  0  0
    7.3670    0.7417    0.3271 H   0  0  0  0  0  0  0  0  0  0  0  0
    2.6916   -2.1320   -0.3518 H   0  0  0  0  0  0  0  0  0  0  0  0
    2.7735    4.7005    0.6128 H   0  0  0  0  0  0  0  0  0  0  0  0
    8.5152   -1.3442    0.2716 H   0  0  0  0  0  0  0  0  0  0  0  0
    7.0328    4.5188   -1.1789 H   0  0  0  0  0  0  0  0  0  0  0  0
    7.3652    4.4735    0.5708 H   0  0  0  0  0  0  0  0  0  0  0  0
  1  2  1  0  0  0  0
  1  3  2  0  0  0  0
  1 14  1  0  0  0  0
  4  5  1  0  0  0  0
  4  6  2  0  0  0  0
  4 15  1  0  0  0  0
  5 27  1  0  0  0  0
  7  8  1  0  0  0  0
  7 22  1  0  0  0  0
  8 28  1  0  0  0  0
  8 29  1  0  0  0  0
  8 30  1  0  0  0  0
  9 26  1  0  0  0  0
  9 31  1  0  0  0  0
 10 11  1  0  0  0  0
 10 12  2  0  0  0  0
 10 13  1  0  0  0  0
 11 14  2  0  0  0  0
 11 15  1  0  0  0  0
 12 16  1  0  0  0  0
 12 17  1  0  0  0  0
 13 18  2  0  0  0  0
 13 19  1  0  0  0  0
 14 20  1  0  0  0  0
 15 21  2  0  0  0  0
 16 20  2  0  0  0  0
 16 22  1  0  0  0  0
 17 23  2  0  0  0  0
 17 32  1  0  0  0  0
 18 21  1  0  0  0  0
 18 24  1  0  0  0  0
 19 25  1  0  0  0  0
 20 33  1  0  0  0  0
 21 34  1  0  0  0  0
 22 26  2  0  0  0  0
 23 26  1  0  0  0  0
 23 35  1  0  0  0  0
 24 25  1  0  0  0  0
 25 36  1  0  0  0  0
 25 37  1  0  0  0  0
M  CHG  2   1   1   2  -1
M  END
>  <Mol_ID>
10083

>  <Formula>
C17H11NO8

>  <MolWeight>
357.27114

>  <Cat>
E5757

>  <Name>
7-Hydroxyaristolochic acid A

>  <Synonyms>
NA

>  <Target>
NA

>  <Form>
Free Base

>  <CAS>
79185-75-4

>  <URL>
https://www.selleckchem.com/products/7-hydroxyaristolochic-acid-a.html

$$$$
