7-Ketolithocholic acid
 OpenBabel08302521363D

 66 69  0  0  1  0  0  0  0  0999 V2000
    2.5578    0.0734    0.6190 C   0  0  0  0  0  0  0  0  0  0  0  0
   -1.1283    1.1303    3.7804 O   0  0  0  0  0  0  0  0  0  0  0  0
    1.5075   -2.7382   -0.9621 C   0  0  1  0  0  0  0  0  0  0  0  0
    3.0059   -2.5836   -1.2293 C   0  0  0  0  0  0  0  0  0  0  0  0
    1.0594   -4.2034   -0.9345 C   0  0  0  0  0  0  0  0  0  0  0  0
    3.4293   -3.0904   -2.6139 C   0  0  0  0  0  0  0  0  0  0  0  0
    4.9020   -2.8419   -2.8554 C   0  0  0  0  0  0  0  0  0  0  0  0
    5.2912   -3.2418   -4.0886 O   0  0  0  0  0  0  0  0  0  0  0  0
    5.6774   -2.3353   -2.0633 O   0  0  0  0  0  0  0  0  0  0  0  0
   -0.1764    3.6196   -0.5886 C   0  0  0  0  0  0  0  0  0  0  0  0
   -5.2151    3.3053    1.1402 O   0  0  0  0  0  0  0  0  0  0  0  0
    0.1328   -0.2065    1.4839 C   0  0  1  0  0  0  0  0  0  0  0  0
   -0.3473    1.2484    1.5038 C   0  0  1  0  0  0  0  0  0  0  0  0
    1.1163   -0.4321    0.2829 C   0  0  2  0  0  0  0  0  0  0  0  0
    0.8019   -1.0738    2.5591 C   0  0  0  0  0  0  0  0  0  0  0  0
   -1.2518    1.4309    0.2166 C   0  0  1  0  0  0  0  0  0  0  0  0
   -1.2169    1.6638    2.6766 C   0  0  0  0  0  0  0  0  0  0  0  0
    0.9568   -1.9670    0.2544 C   0  0  2  0  0  0  0  0  0  0  0  0
    0.6733    0.3093   -0.9781 C   0  0  0  0  0  0  0  0  0  0  0  0
    1.2713   -2.3381    1.7235 C   0  0  0  0  0  0  0  0  0  0  0  0
   -1.4805    2.9367   -0.1133 C   0  0  1  0  0  0  0  0  0  0  0  0
   -0.8155    0.5420   -0.9751 C   0  0  0  0  0  0  0  0  0  0  0  0
   -2.2394    2.7727    2.4263 C   0  0  0  0  0  0  0  0  0  0  0  0
   -1.9712    3.6722    1.1895 C   0  0  2  0  0  0  0  0  0  0  0  0
   -2.4904    3.1157   -1.2951 C   0  0  0  0  0  0  0  0  0  0  0  0
   -3.1694    4.5976    0.8946 C   0  0  0  0  0  0  0  0  0  0  0  0
   -3.9380    2.9127   -0.8859 C   0  0  0  0  0  0  0  0  0  0  0  0
   -4.3519    3.9167    0.1887 C   0  0  1  0  0  0  0  0  0  0  0  0
    2.5351    0.9464    1.2805 H   0  0  0  0  0  0  0  0  0  0  0  0
    3.1806   -0.6826    1.1034 H   0  0  0  0  0  0  0  0  0  0  0  0
    3.0988    0.3854   -0.2804 H   0  0  0  0  0  0  0  0  0  0  0  0
    0.9889   -2.3169   -1.8382 H   0  0  0  0  0  0  0  0  0  0  0  0
    3.2730   -1.5256   -1.2015 H   0  0  0  0  0  0  0  0  0  0  0  0
    3.5813   -3.0820   -0.4479 H   0  0  0  0  0  0  0  0  0  0  0  0
    0.0190   -4.2943   -0.5998 H   0  0  0  0  0  0  0  0  0  0  0  0
    1.6887   -4.8057   -0.2785 H   0  0  0  0  0  0  0  0  0  0  0  0
    1.0934   -4.6328   -1.9436 H   0  0  0  0  0  0  0  0  0  0  0  0
    2.8648   -2.5485   -3.3884 H   0  0  0  0  0  0  0  0  0  0  0  0
    3.2386   -4.1565   -2.7136 H   0  0  0  0  0  0  0  0  0  0  0  0
    4.5727   -3.6208   -4.6272 H   0  0  0  0  0  0  0  0  0  0  0  0
    0.2296    3.1536   -1.4880 H   0  0  0  0  0  0  0  0  0  0  0  0
    0.6060    3.6107    0.1836 H   0  0  0  0  0  0  0  0  0  0  0  0
   -0.3536    4.6741   -0.8325 H   0  0  0  0  0  0  0  0  0  0  0  0
   -4.9815    2.3674    1.2343 H   0  0  0  0  0  0  0  0  0  0  0  0
   -0.8175   -0.7473    1.3331 H   0  0  0  0  0  0  0  0  0  0  0  0
    0.5094    1.9266    1.5053 H   0  0  0  0  0  0  0  0  0  0  0  0
    1.6586   -0.5802    3.0298 H   0  0  0  0  0  0  0  0  0  0  0  0
    0.1111   -1.3718    3.3537 H   0  0  0  0  0  0  0  0  0  0  0  0
   -2.2465    1.0308    0.4763 H   0  0  0  0  0  0  0  0  0  0  0  0
   -0.1194   -2.1717    0.1476 H   0  0  0  0  0  0  0  0  0  0  0  0
    1.1746    1.2743   -1.0365 H   0  0  0  0  0  0  0  0  0  0  0  0
    0.9830   -0.2144   -1.8859 H   0  0  0  0  0  0  0  0  0  0  0  0
    2.3361   -2.5375    1.8894 H   0  0  0  0  0  0  0  0  0  0  0  0
    0.7156   -3.2290    2.0313 H   0  0  0  0  0  0  0  0  0  0  0  0
   -1.1036    0.9385   -1.9467 H   0  0  0  0  0  0  0  0  0  0  0  0
   -1.3297   -0.4265   -0.9023 H   0  0  0  0  0  0  0  0  0  0  0  0
   -3.2122    2.2815    2.3503 H   0  0  0  0  0  0  0  0  0  0  0  0
   -2.2583    3.4096    3.3170 H   0  0  0  0  0  0  0  0  0  0  0  0
   -1.1559    4.3388    1.5174 H   0  0  0  0  0  0  0  0  0  0  0  0
   -2.2722    2.4519   -2.1337 H   0  0  0  0  0  0  0  0  0  0  0  0
   -2.3921    4.1223   -1.7244 H   0  0  0  0  0  0  0  0  0  0  0  0
   -2.8069    5.4019    0.2364 H   0  0  0  0  0  0  0  0  0  0  0  0
   -3.5079    5.0816    1.8149 H   0  0  0  0  0  0  0  0  0  0  0  0
   -4.5751    3.0561   -1.7689 H   0  0  0  0  0  0  0  0  0  0  0  0
   -4.1083    1.8759   -0.5757 H   0  0  0  0  0  0  0  0  0  0  0  0
   -4.9504    4.7037   -0.2857 H   0  0  0  0  0  0  0  0  0  0  0  0
  1 29  1  0  0  0  0
  1 30  1  0  0  0  0
  1 31  1  0  0  0  0
  2 17  2  0  0  0  0
  3  4  1  0  0  0  0
  3  5  1  0  0  0  0
  3 32  1  6  0  0  0
  4  6  1  0  0  0  0
  4 33  1  0  0  0  0
  4 34  1  0  0  0  0
  5 35  1  0  0  0  0
  5 36  1  0  0  0  0
  5 37  1  0  0  0  0
  6  7  1  0  0  0  0
  6 38  1  0  0  0  0
  6 39  1  0  0  0  0
  7  8  1  0  0  0  0
  7  9  2  0  0  0  0
  8 40  1  0  0  0  0
 10 41  1  0  0  0  0
 10 42  1  0  0  0  0
 10 43  1  0  0  0  0
 11 44  1  0  0  0  0
 12 13  1  0  0  0  0
 12 14  1  0  0  0  0
 12 15  1  0  0  0  0
 12 45  1  6  0  0  0
 13 16  1  0  0  0  0
 13 17  1  0  0  0  0
 13 46  1  6  0  0  0
 14  1  1  1  0  0  0
 14 18  1  0  0  0  0
 14 19  1  0  0  0  0
 15 20  1  0  0  0  0
 15 47  1  0  0  0  0
 15 48  1  0  0  0  0
 16 21  1  0  0  0  0
 16 22  1  0  0  0  0
 16 49  1  1  0  0  0
 17 23  1  0  0  0  0
 18  3  1  0  0  0  0
 18 20  1  0  0  0  0
 18 50  1  6  0  0  0
 19 22  1  0  0  0  0
 19 51  1  0  0  0  0
 19 52  1  0  0  0  0
 20 53  1  0  0  0  0
 20 54  1  0  0  0  0
 21 10  1  6  0  0  0
 21 24  1  0  0  0  0
 21 25  1  0  0  0  0
 22 55  1  0  0  0  0
 22 56  1  0  0  0  0
 23 57  1  0  0  0  0
 23 58  1  0  0  0  0
 24 23  1  0  0  0  0
 24 26  1  0  0  0  0
 24 59  1  1  0  0  0
 25 27  1  0  0  0  0
 25 60  1  0  0  0  0
 25 61  1  0  0  0  0
 26 28  1  0  0  0  0
 26 62  1  0  0  0  0
 26 63  1  0  0  0  0
 27 28  1  0  0  0  0
 27 64  1  0  0  0  0
 27 65  1  0  0  0  0
 28 66  1  6  0  0  0
 28 11  1  0  0  0  0
M  END
>  <Mol_ID>
7220

>  <Formula>
C24H38O4

>  <MolWeight>
390.55612

>  <Cat>
E4226

>  <Name>
7-Ketolithocholic acid

>  <Synonyms>
3¦Á-Hydroxy-7-oxo-5¦Â-cholanic acid

>  <Target>
Others

>  <Form>
Free base

>  <CAS>
4651-67-6

>  <URL>
https://www.selleckchem.com/products/7-ketolithocholic-acid.html

$$$$
