8-Epidiosbulbin E acetate
 OpenBabel08302521473D

 52 56  0  0  1  0  0  0  0  0999 V2000
    2.7655    0.6746   -0.6921 O   0  0  0  0  0  0  0  0  0  0  0  0
    2.1401    1.8231   -0.2984 C   0  0  0  0  0  0  0  0  0  0  0  0
    1.2825    2.3584   -1.4006 C   0  0  0  0  0  0  0  0  0  0  0  0
    2.2596    2.3524    0.7966 O   0  0  0  0  0  0  0  0  0  0  0  0
    5.5402   -2.3132    3.1714 C   0  0  0  0  0  0  0  0  0  0  0  0
    5.1109    4.0697    0.8591 O   0  0  0  0  0  0  0  0  0  0  0  0
    2.0392   -3.8987    1.8261 O   0  0  0  0  0  0  0  0  0  0  0  0
    5.0158    0.1814    0.1639 C   0  0  3  0  0  0  0  0  0  0  0  0
    5.8854   -0.7052    1.1535 C   0  0  3  0  0  0  0  0  0  0  0  0
    5.4026    1.7235    0.1550 C   0  0  3  0  0  0  0  0  0  0  0  0
    3.4947   -0.0224    0.3333 C   0  0  3  0  0  0  0  0  0  0  0  0
    5.2542   -2.1036    1.6578 C   0  0  3  0  0  0  0  0  0  0  0  0
    6.5511    0.2250    2.2247 C   0  0  0  0  0  0  0  0  0  0  0  0
    6.9368    1.5704    0.1131 C   0  0  0  0  0  0  0  0  0  0  0  0
    5.6229    2.9757    1.0318 C   0  0  0  0  0  0  0  0  0  0  0  0
    3.2090   -1.4986    0.1936 C   0  0  0  0  0  0  0  0  0  0  0  0
    3.7101   -2.1983    1.4501 C   0  0  3  0  0  0  0  0  0  0  0  0
    5.9483   -3.3087    0.9010 C   0  0  0  0  0  0  0  0  0  0  0  0
    7.1983    1.4928    1.5966 C   0  0  3  0  0  0  0  0  0  0  0  0
    6.5232    2.6753    2.0313 O   0  0  0  0  0  0  0  0  0  0  0  0
    3.1339   -3.5932    1.3740 C   0  0  0  0  0  0  0  0  0  0  0  0
    5.1654   -4.6198    1.0296 C   0  0  3  0  0  0  0  0  0  0  0  0
    3.8351   -4.4124    0.5623 O   0  0  0  0  0  0  0  0  0  0  0  0
    5.7193   -5.8427    0.3554 C   0  0  0  0  0  0  0  0  0  0  0  0
    4.9689   -7.0366    0.0987 C   0  0  0  0  0  0  0  0  0  0  0  0
    6.9987   -6.1349   -0.0687 C   0  0  0  0  0  0  0  0  0  0  0  0
    5.8497   -7.9666   -0.3930 C   0  0  0  0  0  0  0  0  0  0  0  0
    7.0844   -7.4190   -0.5112 O   0  0  0  0  0  0  0  0  0  0  0  0
    0.5856    3.0930   -0.9857 H   0  0  0  0  0  0  0  0  0  0  0  0
    1.9039    2.8357   -2.1606 H   0  0  0  0  0  0  0  0  0  0  0  0
    0.6923    1.5478   -1.8359 H   0  0  0  0  0  0  0  0  0  0  0  0
    5.0798   -1.5259    3.7779 H   0  0  0  0  0  0  0  0  0  0  0  0
    5.1426   -3.2637    3.5405 H   0  0  0  0  0  0  0  0  0  0  0  0
    6.6159   -2.3192    3.3796 H   0  0  0  0  0  0  0  0  0  0  0  0
    5.2367   -0.1685   -0.8573 H   0  0  0  0  0  0  0  0  0  0  0  0
    6.7474   -1.0261    0.5497 H   0  0  0  0  0  0  0  0  0  0  0  0
    4.7039    1.6774    1.0175 H   0  0  0  0  0  0  0  0  0  0  0  0
    3.1601    0.2958    1.3305 H   0  0  0  0  0  0  0  0  0  0  0  0
    7.3539   -0.3272    2.7257 H   0  0  0  0  0  0  0  0  0  0  0  0
    5.8200    0.5131    2.9895 H   0  0  0  0  0  0  0  0  0  0  0  0
    7.4105    2.4530   -0.3448 H   0  0  0  0  0  0  0  0  0  0  0  0
    7.3195    0.7194   -0.4581 H   0  0  0  0  0  0  0  0  0  0  0  0
    3.6875   -1.9059   -0.7080 H   0  0  0  0  0  0  0  0  0  0  0  0
    2.1340   -1.6634    0.0481 H   0  0  0  0  0  0  0  0  0  0  0  0
    3.2251   -1.7379    2.3221 H   0  0  0  0  0  0  0  0  0  0  0  0
    6.0701   -3.0532   -0.1573 H   0  0  0  0  0  0  0  0  0  0  0  0
    6.9699   -3.4506    1.3044 H   0  0  0  0  0  0  0  0  0  0  0  0
    8.2586    1.5812    1.8453 H   0  0  0  0  0  0  0  0  0  0  0  0
    5.1009   -4.9010    2.0892 H   0  0  0  0  0  0  0  0  0  0  0  0
    3.9155   -7.1980    0.2913 H   0  0  0  0  0  0  0  0  0  0  0  0
    7.9292   -5.5870   -0.0944 H   0  0  0  0  0  0  0  0  0  0  0  0
    5.7577   -9.0049   -0.6831 H   0  0  0  0  0  0  0  0  0  0  0  0
  1  2  1  0  0  0  0
  2  3  1  0  0  0  0
  2  4  2  0  0  0  0
  3 29  1  0  0  0  0
  3 30  1  0  0  0  0
  3 31  1  0  0  0  0
  5 32  1  0  0  0  0
  5 33  1  0  0  0  0
  5 34  1  0  0  0  0
  6 15  2  0  0  0  0
  7 21  2  0  0  0  0
  8  9  1  0  0  0  0
  8 10  1  0  0  0  0
  8 11  1  0  0  0  0
  8 35  1  0  0  0  0
  9 12  1  0  0  0  0
  9 13  1  0  0  0  0
  9 36  1  0  0  0  0
 10 14  1  0  0  0  0
 10 15  1  0  0  0  0
 10 37  1  0  0  0  0
 11  1  1  0  0  0  0
 11 16  1  0  0  0  0
 11 38  1  0  0  0  0
 12  5  1  0  0  0  0
 12 17  1  0  0  0  0
 12 18  1  0  0  0  0
 13 39  1  0  0  0  0
 13 40  1  0  0  0  0
 14 19  1  0  0  0  0
 14 41  1  0  0  0  0
 14 42  1  0  0  0  0
 15 20  1  0  0  0  0
 16 43  1  0  0  0  0
 16 44  1  0  0  0  0
 17 16  1  0  0  0  0
 17 21  1  0  0  0  0
 17 45  1  0  0  0  0
 18 22  1  0  0  0  0
 18 46  1  0  0  0  0
 18 47  1  0  0  0  0
 19 13  1  0  0  0  0
 19 20  1  0  0  0  0
 19 48  1  0  0  0  0
 21 23  1  0  0  0  0
 22 23  1  0  0  0  0
 22 24  1  0  0  0  0
 22 49  1  0  0  0  0
 24 25  1  0  0  0  0
 24 26  2  0  0  0  0
 25 27  2  0  0  0  0
 25 50  1  0  0  0  0
 26 28  1  0  0  0  0
 26 51  1  0  0  0  0
 27 28  1  0  0  0  0
 27 52  1  0  0  0  0
M  END
>  <Mol_ID>
9776

>  <Formula>
C21H24O7

>  <MolWeight>
388.41106

>  <Cat>
E2300

>  <Name>
8-Epidiosbulbin E acetate

>  <Synonyms>
NA

>  <Target>
NA

>  <Form>
free base

>  <CAS>
91095-48-6

>  <URL>
https://www.selleckchem.com/products/8-epidiosbulbin-e-acetate.html

$$$$
