8-Hydroxy-2'-deoxyguanosine
 OpenBabel08302521373D

 33 35  0  0  1  0  0  0  0  0999 V2000
    2.4273   -0.4449   -2.2184 O   0  0  0  0  0  0  0  0  0  0  0  0
    4.7175    3.1249    0.9345 O   0  0  0  0  0  0  0  0  0  0  0  0
    4.9757   -0.0434    4.2771 N   0  0  0  0  0  0  0  0  0  0  0  0
    4.9359   -4.6036    1.0718 C   0  0  0  0  0  0  0  0  0  0  0  0
    5.3078   -4.3696    2.4296 O   0  0  0  0  0  0  0  0  0  0  0  0
    1.6809   -5.1796   -0.6202 O   0  0  0  0  0  0  0  0  0  0  0  0
    3.1010   -1.0031   -0.0113 N   0  0  0  0  0  0  0  0  0  0  0  0
    3.6761   -0.2578    0.9955 C   0  0  0  0  0  0  0  0  0  0  0  0
    2.9378   -0.1662   -1.1487 C   0  0  0  0  0  0  0  0  0  0  0  0
    3.9209    0.9638    0.5114 C   0  0  0  0  0  0  0  0  0  0  0  0
    3.9920   -0.5508    2.2818 N   0  0  0  0  0  0  0  0  0  0  0  0
    3.4955    1.0623   -0.7805 N   0  0  0  0  0  0  0  0  0  0  0  0
    4.5403    1.9959    1.3770 C   0  0  0  0  0  0  0  0  0  0  0  0
    4.6056    0.3959    3.0506 C   0  0  0  0  0  0  0  0  0  0  0  0
    4.8875    1.5996    2.6617 N   0  0  0  0  0  0  0  0  0  0  0  0
    2.5920   -2.3460    0.0577 C   0  0  2  0  0  0  0  0  0  0  0  0
    3.1076   -3.0123    1.2270 O   0  0  0  0  0  0  0  0  0  0  0  0
    2.9505   -3.2117   -1.1422 C   0  0  0  0  0  0  0  0  0  0  0  0
    3.4315   -4.3832    0.8831 C   0  0  1  0  0  0  0  0  0  0  0  0
    2.9870   -4.6035   -0.5617 C   0  0  1  0  0  0  0  0  0  0  0  0
    4.4030   -0.7431    4.7299 H   0  0  0  0  0  0  0  0  0  0  0  0
    5.2579    0.7102    4.8981 H   0  0  0  0  0  0  0  0  0  0  0  0
    5.2019   -5.6382    0.8325 H   0  0  0  0  0  0  0  0  0  0  0  0
    5.5313   -3.9337    0.4436 H   0  0  0  0  0  0  0  0  0  0  0  0
    5.2642   -3.4071    2.5670 H   0  0  0  0  0  0  0  0  0  0  0  0
    1.0817   -4.6999   -0.0229 H   0  0  0  0  0  0  0  0  0  0  0  0
    3.6500   -1.4279    2.6490 H   0  0  0  0  0  0  0  0  0  0  0  0
    3.5465    1.8896   -1.3562 H   0  0  0  0  0  0  0  0  0  0  0  0
    1.5029   -2.2866    0.1683 H   0  0  0  0  0  0  0  0  0  0  0  0
    3.9396   -2.9431   -1.5307 H   0  0  0  0  0  0  0  0  0  0  0  0
    2.2211   -3.1000   -1.9517 H   0  0  0  0  0  0  0  0  0  0  0  0
    2.8784   -5.0201    1.5821 H   0  0  0  0  0  0  0  0  0  0  0  0
    3.6481   -5.2696   -1.1212 H   0  0  0  0  0  0  0  0  0  0  0  0
  1  9  2  0  0  0  0
  2 13  2  0  0  0  0
  3 14  1  0  0  0  0
  3 21  1  0  0  0  0
  3 22  1  0  0  0  0
  4  5  1  0  0  0  0
  4 23  1  0  0  0  0
  4 24  1  0  0  0  0
  5 25  1  0  0  0  0
  6 26  1  0  0  0  0
  7  8  1  0  0  0  0
  7  9  1  0  0  0  0
  8 10  2  0  0  0  0
  8 11  1  0  0  0  0
  9 12  1  0  0  0  0
 10 12  1  0  0  0  0
 10 13  1  0  0  0  0
 11 14  1  0  0  0  0
 11 27  1  0  0  0  0
 12 28  1  0  0  0  0
 13 15  1  0  0  0  0
 14 15  2  0  0  0  0
 16  7  1  0  0  0  0
 16 17  1  0  0  0  0
 16 18  1  0  0  0  0
 16 29  1  1  0  0  0
 17 19  1  0  0  0  0
 18 20  1  0  0  0  0
 18 30  1  0  0  0  0
 18 31  1  0  0  0  0
 19 20  1  0  0  0  0
 19 32  1  1  0  0  0
 19  4  1  0  0  0  0
 20  6  1  0  0  0  0
 20 33  1  6  0  0  0
M  END
>  <Mol_ID>
7422

>  <Formula>
C10H13N5O5

>  <MolWeight>
283.24072

>  <Cat>
E4522

>  <Name>
8-Hydroxy-2'-deoxyguanosine

>  <Target>
Others

>  <Form>
Free base

>  <CAS>
88847-89-6

>  <URL>
https://www.selleckchem.com/products/8-hydroxy-2-deoxyguanosine.html

$$$$
