9-Methoxycanthin-6-one
 OpenBabel08302521293D

 29 32  0  0  0  0  0  0  0  0999 V2000
    0.8262   -0.0474    0.1146 O   0  0  0  0  0  0  0  0  0  0  0  0
   -3.0545   -2.2721    2.6197 O   0  0  0  0  0  0  0  0  0  0  0  0
   -2.4843   -0.3315    3.7061 N   0  0  0  0  0  0  0  0  0  0  0  0
   -3.7983    1.2516    6.7209 N   0  0  0  0  0  0  0  0  0  0  0  0
   -2.7221    0.5160    4.7621 C   0  0  0  0  0  0  0  0  0  0  0  0
   -1.4408    0.1903    2.9495 C   0  0  0  0  0  0  0  0  0  0  0  0
   -1.8626    1.5907    4.7169 C   0  0  0  0  0  0  0  0  0  0  0  0
   -1.0447    1.3901    3.5669 C   0  0  0  0  0  0  0  0  0  0  0  0
   -3.6731    0.3444    5.7413 C   0  0  0  0  0  0  0  0  0  0  0  0
   -0.8055   -0.2781    1.7828 C   0  0  0  0  0  0  0  0  0  0  0  0
   -3.2458   -1.5014    3.5476 C   0  0  0  0  0  0  0  0  0  0  0  0
    0.0037    2.1344    2.9940 C   0  0  0  0  0  0  0  0  0  0  0  0
   -1.9777    2.5521    5.7302 C   0  0  0  0  0  0  0  0  0  0  0  0
   -4.4904   -0.8517    5.6286 C   0  0  0  0  0  0  0  0  0  0  0  0
    0.2574    0.4664    1.2518 C   0  0  0  0  0  0  0  0  0  0  0  0
   -4.2924   -1.7095    4.6085 C   0  0  0  0  0  0  0  0  0  0  0  0
    0.6422    1.6674    1.8417 C   0  0  0  0  0  0  0  0  0  0  0  0
   -2.9604    2.3197    6.6945 C   0  0  0  0  0  0  0  0  0  0  0  0
    2.2114    0.2428   -0.0597 C   0  0  0  0  0  0  0  0  0  0  0  0
   -1.1149   -1.2045    1.3055 H   0  0  0  0  0  0  0  0  0  0  0  0
    0.3167    3.0751    3.4413 H   0  0  0  0  0  0  0  0  0  0  0  0
   -1.3411    3.4272    5.7713 H   0  0  0  0  0  0  0  0  0  0  0  0
   -5.2459   -1.0123    6.3877 H   0  0  0  0  0  0  0  0  0  0  0  0
   -4.8884   -2.6096    4.5013 H   0  0  0  0  0  0  0  0  0  0  0  0
    1.4276    2.2832    1.4177 H   0  0  0  0  0  0  0  0  0  0  0  0
   -3.1010    3.0263    7.5100 H   0  0  0  0  0  0  0  0  0  0  0  0
    2.5515   -0.2707   -0.9634 H   0  0  0  0  0  0  0  0  0  0  0  0
    2.3914    1.3111   -0.2119 H   0  0  0  0  0  0  0  0  0  0  0  0
    2.7964   -0.1361    0.7862 H   0  0  0  0  0  0  0  0  0  0  0  0
  1 15  1  0  0  0  0
  1 19  1  0  0  0  0
  2 11  2  0  0  0  0
  3  5  1  0  0  0  0
  3  6  1  0  0  0  0
  3 11  1  0  0  0  0
  4  9  2  0  0  0  0
  4 18  1  0  0  0  0
  5  7  2  0  0  0  0
  5  9  1  0  0  0  0
  6  8  2  0  0  0  0
  6 10  1  0  0  0  0
  7  8  1  0  0  0  0
  7 13  1  0  0  0  0
  8 12  1  0  0  0  0
  9 14  1  0  0  0  0
 10 15  2  0  0  0  0
 10 20  1  0  0  0  0
 11 16  1  0  0  0  0
 12 17  2  0  0  0  0
 12 21  1  0  0  0  0
 13 18  2  0  0  0  0
 13 22  1  0  0  0  0
 14 16  2  0  0  0  0
 14 23  1  0  0  0  0
 15 17  1  0  0  0  0
 16 24  1  0  0  0  0
 17 25  1  0  0  0  0
 18 26  1  0  0  0  0
 19 27  1  0  0  0  0
 19 28  1  0  0  0  0
 19 29  1  0  0  0  0
M  END
>  <Mol_ID>
5429

>  <Formula>
C15H10N2O2

>  <MolWeight>
250.2521

>  <Cat>
S2986

>  <Name>
9-Methoxycanthin-6-one

>  <Synonyms>
N/A

>  <Target>
Others

>  <Form>
Free Base

>  <CAS>
74991-91-6

>  <URL>
https://www.selleckchem.com/products/9-methoxycanthin-6-one.html

$$$$
