[(2-Methoxyphenoxy)Methyl]Oxirane
 OpenBabel08302521373D

 25 26  0  0  0  0  0  0  0  0999 V2000
    1.0377    0.1972    0.2287 O   0  0  0  0  0  0  0  0  0  0  0  0
    0.5109   -0.9033    0.9821 C   0  0  0  0  0  0  0  0  0  0  0  0
    2.5019    2.6515   -0.1697 O   0  0  0  0  0  0  0  0  0  0  0  0
    1.3448    2.7621   -0.9906 C   0  0  0  0  0  0  0  0  0  0  0  0
    2.4066    0.1882    0.0840 C   0  0  0  0  0  0  0  0  0  0  0  0
    3.0742    1.4108   -0.0912 C   0  0  0  0  0  0  0  0  0  0  0  0
    3.1612   -0.9959    0.1355 C   0  0  0  0  0  0  0  0  0  0  0  0
    4.4769    1.4361   -0.1001 C   0  0  0  0  0  0  0  0  0  0  0  0
    4.5570   -0.9607    0.1179 C   0  0  0  0  0  0  0  0  0  0  0  0
    5.2137    0.2593    0.0182 C   0  0  0  0  0  0  0  0  0  0  0  0
   -0.8580   -0.5637    1.4699 C   0  0  3  0  0  0  0  0  0  0  0  0
   -1.0712    0.4477    2.5622 C   0  0  0  0  0  0  0  0  0  0  0  0
   -1.1125   -0.9625    2.8263 O   0  0  0  0  0  0  0  0  0  0  0  0
    0.4402   -1.7871    0.3369 H   0  0  0  0  0  0  0  0  0  0  0  0
    1.1557   -1.1284    1.8415 H   0  0  0  0  0  0  0  0  0  0  0  0
    1.1655    1.9022   -1.6431 H   0  0  0  0  0  0  0  0  0  0  0  0
    0.4762    2.9483   -0.3527 H   0  0  0  0  0  0  0  0  0  0  0  0
    1.4786    3.6372   -1.6363 H   0  0  0  0  0  0  0  0  0  0  0  0
    2.6876   -1.9698    0.2139 H   0  0  0  0  0  0  0  0  0  0  0  0
    4.9957    2.3885   -0.1834 H   0  0  0  0  0  0  0  0  0  0  0  0
    5.1231   -1.8844    0.2032 H   0  0  0  0  0  0  0  0  0  0  0  0
    6.3004    0.2944    0.0342 H   0  0  0  0  0  0  0  0  0  0  0  0
   -1.6349   -0.7300    0.7382 H   0  0  0  0  0  0  0  0  0  0  0  0
   -0.2156    1.0107    2.9149 H   0  0  0  0  0  0  0  0  0  0  0  0
   -2.0116    0.9817    2.5947 H   0  0  0  0  0  0  0  0  0  0  0  0
  1  2  1  0  0  0  0
  1  5  1  0  0  0  0
  2 11  1  0  0  0  0
  2 14  1  0  0  0  0
  2 15  1  0  0  0  0
  3  4  1  0  0  0  0
  3  6  1  0  0  0  0
  4 16  1  0  0  0  0
  4 17  1  0  0  0  0
  4 18  1  0  0  0  0
  5  6  2  0  0  0  0
  5  7  1  0  0  0  0
  6  8  1  0  0  0  0
  7  9  2  0  0  0  0
  7 19  1  0  0  0  0
  8 10  2  0  0  0  0
  8 20  1  0  0  0  0
  9 10  1  0  0  0  0
  9 21  1  0  0  0  0
 10 22  1  0  0  0  0
 11 12  1  0  0  0  0
 11 13  1  0  0  0  0
 11 23  1  0  0  0  0
 12 13  1  0  0  0  0
 12 24  1  0  0  0  0
 12 25  1  0  0  0  0
M  END
>  <Mol_ID>
7356

>  <Formula>
C10H12O3

>  <MolWeight>
180.20048

>  <Cat>
E4403

>  <Name>
[(2-Methoxyphenoxy)Methyl]Oxirane

>  <Synonyms>
[(2-Methoxyphenoxy)Methyl]Oxirane

>  <Target>
Others

>  <Form>
free base

>  <CAS>
2210-74-4

>  <URL>
https://www.selleckchem.com/products/2-methoxyphenoxy-methyl-oxirane.html

$$$$
