[8]-Shogaol
 OpenBabel08302521493D

 50 50  0  0  0  0  0  0  0  0999 V2000
   -0.0786   -0.5252    0.0930 C   0  0  0  0  0  0  0  0  0  0  0  0
    0.5296   -0.5014   -1.3072 C   0  0  0  0  0  0  0  0  0  0  0  0
    1.0432   -1.8748   -1.6959 C   0  0  0  0  0  0  0  0  0  0  0  0
    0.0408   -2.9779   -1.7894 C   0  0  0  0  0  0  0  0  0  0  0  0
    2.2272   -2.0741   -1.9388 O   0  0  0  0  0  0  0  0  0  0  0  0
    0.4288   -4.2597   -1.7309 C   0  0  0  0  0  0  0  0  0  0  0  0
   -0.5189   -5.4206   -1.8694 C   0  0  0  0  0  0  0  0  0  0  0  0
   -0.5956   -5.8680   -3.3334 C   0  0  0  0  0  0  0  0  0  0  0  0
   -1.5483   -7.0506   -3.5430 C   0  0  0  0  0  0  0  0  0  0  0  0
   -1.6264   -7.4684   -5.0209 C   0  0  0  0  0  0  0  0  0  0  0  0
   -2.5736   -8.6585   -5.2313 C   0  0  0  0  0  0  0  0  0  0  0  0
   -2.6650   -9.0799   -6.7027 C   0  0  0  0  0  0  0  0  0  0  0  0
   -3.6069  -10.2627   -6.8953 C   0  0  0  0  0  0  0  0  0  0  0  0
    0.4538    4.2881    1.3782 O   0  0  0  0  0  0  0  0  0  0  0  0
    1.8486    4.2241    1.1075 C   0  0  0  0  0  0  0  0  0  0  0  0
   -2.1476    4.4249    1.9304 O   0  0  0  0  0  0  0  0  0  0  0  0
   -0.6176    0.8066    0.5622 C   0  0  0  0  0  0  0  0  0  0  0  0
    0.2299    1.9244    0.6915 C   0  0  0  0  0  0  0  0  0  0  0  0
   -1.9683    0.9312    0.9297 C   0  0  0  0  0  0  0  0  0  0  0  0
   -0.2690    3.1426    1.1639 C   0  0  0  0  0  0  0  0  0  0  0  0
   -2.4794    2.1554    1.3607 C   0  0  0  0  0  0  0  0  0  0  0  0
   -1.6277    3.2428    1.4760 C   0  0  0  0  0  0  0  0  0  0  0  0
    0.6729   -0.8727    0.8157 H   0  0  0  0  0  0  0  0  0  0  0  0
   -0.8869   -1.2689    0.1284 H   0  0  0  0  0  0  0  0  0  0  0  0
   -0.1816   -0.1571   -2.0664 H   0  0  0  0  0  0  0  0  0  0  0  0
    1.3891    0.1851   -1.3437 H   0  0  0  0  0  0  0  0  0  0  0  0
   -1.0002   -2.6964   -1.9126 H   0  0  0  0  0  0  0  0  0  0  0  0
    1.4834   -4.5008   -1.6026 H   0  0  0  0  0  0  0  0  0  0  0  0
   -0.1677   -6.2414   -1.2307 H   0  0  0  0  0  0  0  0  0  0  0  0
   -1.5149   -5.1436   -1.5018 H   0  0  0  0  0  0  0  0  0  0  0  0
   -0.9292   -5.0216   -3.9485 H   0  0  0  0  0  0  0  0  0  0  0  0
    0.4076   -6.1398   -3.6842 H   0  0  0  0  0  0  0  0  0  0  0  0
   -1.2085   -7.8992   -2.9376 H   0  0  0  0  0  0  0  0  0  0  0  0
   -2.5504   -6.7805   -3.1885 H   0  0  0  0  0  0  0  0  0  0  0  0
   -1.9697   -6.6171   -5.6221 H   0  0  0  0  0  0  0  0  0  0  0  0
   -0.6245   -7.7323   -5.3814 H   0  0  0  0  0  0  0  0  0  0  0  0
   -2.2275   -9.5089   -4.6318 H   0  0  0  0  0  0  0  0  0  0  0  0
   -3.5752   -8.3953   -4.8707 H   0  0  0  0  0  0  0  0  0  0  0  0
   -3.0244   -8.2402   -7.3084 H   0  0  0  0  0  0  0  0  0  0  0  0
   -1.6718   -9.3498   -7.0802 H   0  0  0  0  0  0  0  0  0  0  0  0
   -4.6183  -10.0191   -6.5548 H   0  0  0  0  0  0  0  0  0  0  0  0
   -3.6654  -10.5354   -7.9545 H   0  0  0  0  0  0  0  0  0  0  0  0
   -3.2605  -11.1411   -6.3411 H   0  0  0  0  0  0  0  0  0  0  0  0
    2.3395    3.4535    1.7112 H   0  0  0  0  0  0  0  0  0  0  0  0
    2.0284    4.0674    0.0395 H   0  0  0  0  0  0  0  0  0  0  0  0
    2.2851    5.1884    1.3843 H   0  0  0  0  0  0  0  0  0  0  0  0
   -1.3828    5.0298    1.9886 H   0  0  0  0  0  0  0  0  0  0  0  0
    1.2777    1.8123    0.4364 H   0  0  0  0  0  0  0  0  0  0  0  0
   -2.6357    0.0727    0.8976 H   0  0  0  0  0  0  0  0  0  0  0  0
   -3.5285    2.2572    1.6231 H   0  0  0  0  0  0  0  0  0  0  0  0
  1  2  1  0  0  0  0
  1 17  1  0  0  0  0
  1 23  1  0  0  0  0
  1 24  1  0  0  0  0
  2  3  1  0  0  0  0
  2 25  1  0  0  0  0
  2 26  1  0  0  0  0
  3  4  1  0  0  0  0
  3  5  2  0  0  0  0
  4  6  2  3  0  0  0
  4 27  1  0  0  0  0
  6  7  1  0  0  0  0
  6 28  1  0  0  0  0
  7  8  1  0  0  0  0
  7 29  1  0  0  0  0
  7 30  1  0  0  0  0
  8  9  1  0  0  0  0
  8 31  1  0  0  0  0
  8 32  1  0  0  0  0
  9 10  1  0  0  0  0
  9 33  1  0  0  0  0
  9 34  1  0  0  0  0
 10 11  1  0  0  0  0
 10 35  1  0  0  0  0
 10 36  1  0  0  0  0
 11 12  1  0  0  0  0
 11 37  1  0  0  0  0
 11 38  1  0  0  0  0
 12 13  1  0  0  0  0
 12 39  1  0  0  0  0
 12 40  1  0  0  0  0
 13 41  1  0  0  0  0
 13 42  1  0  0  0  0
 13 43  1  0  0  0  0
 14 15  1  0  0  0  0
 14 20  1  0  0  0  0
 15 44  1  0  0  0  0
 15 45  1  0  0  0  0
 15 46  1  0  0  0  0
 16 22  1  0  0  0  0
 16 47  1  0  0  0  0
 17 18  2  0  0  0  0
 17 19  1  0  0  0  0
 18 20  1  0  0  0  0
 18 48  1  0  0  0  0
 19 21  2  0  0  0  0
 19 49  1  0  0  0  0
 20 22  2  0  0  0  0
 21 22  1  0  0  0  0
 21 50  1  0  0  0  0
M  END
>  <Mol_ID>
9792

>  <Formula>
C19H28O3

>  <MolWeight>
304.42382

>  <Cat>
E2325

>  <Name>
[8]-Shogaol

>  <Synonyms>
8-Shogaol

>  <Target>
COX-2

>  <Form>
Free Base

>  <CAS>
36700-45-5

>  <URL>
https://www.selleckchem.com/products/8-shogaol.html

$$$$
