A-3 hydrochloride
 OpenBabel08302521343D

 31 32  0  0  0  0  0  0  0  0999 V2000
    1.2306   -1.3991   -0.0614 C   0  0  0  0  0  0  0  0  0  0  0  0
   -0.0375   -0.7450   -0.0462 C   0  0  0  0  0  0  0  0  0  0  0  0
    1.3683   -3.1837   -0.1012 S   0  0  0  0  0  0  0  0  0  0  0  0
    2.4299   -0.6663   -0.0460 C   0  0  0  0  0  0  0  0  0  0  0  0
   -0.0359    0.6746    0.0036 C   0  0  0  0  0  0  0  0  0  0  0  0
   -1.3075   -1.3818   -0.0666 C   0  0  0  0  0  0  0  0  0  0  0  0
    0.6156   -3.6828    1.3284 N   0  0  0  0  0  0  0  0  0  0  0  0
    0.5554   -3.6387   -1.2078 O   0  0  0  0  0  0  0  0  0  0  0  0
    2.7681   -3.5363   -0.0090 O   0  0  0  0  0  0  0  0  0  0  0  0
    2.3991    0.7216    0.0027 C   0  0  0  0  0  0  0  0  0  0  0  0
   -1.2466    1.3861    0.0279 C   0  0  0  0  0  0  0  0  0  0  0  0
    1.1755    1.3835    0.0261 C   0  0  0  0  0  0  0  0  0  0  0  0
   -2.5024   -0.6595   -0.0193 C   0  0  0  0  0  0  0  0  0  0  0  0
    1.4363   -3.8511    2.5500 C   0  0  0  0  0  0  0  0  0  0  0  0
   -2.4719    0.7253    0.0211 C   0  0  0  0  0  0  0  0  0  0  0  0
    2.0548   -2.5402    3.0486 C   0  0  0  0  0  0  0  0  0  0  0  0
    1.0478   -1.5140    3.3360 N   0  0  0  0  0  0  0  0  0  0  0  0
    3.3950   -1.1697   -0.0660 H   0  0  0  0  0  0  0  0  0  0  0  0
   -1.4013   -2.4628   -0.1428 H   0  0  0  0  0  0  0  0  0  0  0  0
   -0.2586   -3.2009    1.5270 H   0  0  0  0  0  0  0  0  0  0  0  0
    3.3263    1.2901    0.0171 H   0  0  0  0  0  0  0  0  0  0  0  0
   -1.2464    2.4748    0.0485 H   0  0  0  0  0  0  0  0  0  0  0  0
    1.1746    2.4724    0.0558 H   0  0  0  0  0  0  0  0  0  0  0  0
   -3.4550   -1.1842   -0.0318 H   0  0  0  0  0  0  0  0  0  0  0  0
    0.7755   -4.2556    3.3275 H   0  0  0  0  0  0  0  0  0  0  0  0
    2.2085   -4.6071    2.3741 H   0  0  0  0  0  0  0  0  0  0  0  0
   -3.3988    1.2927    0.0345 H   0  0  0  0  0  0  0  0  0  0  0  0
    2.6193   -2.7407    3.9642 H   0  0  0  0  0  0  0  0  0  0  0  0
    2.7720   -2.1533    2.3206 H   0  0  0  0  0  0  0  0  0  0  0  0
    1.5261   -0.6458    3.5808 H   0  0  0  0  0  0  0  0  0  0  0  0
    0.5112   -1.2878    2.5012 H   0  0  0  0  0  0  0  0  0  0  0  0
  1  2  2  0  0  0  0
  1  3  1  0  0  0  0
  1  4  1  0  0  0  0
  2  5  1  0  0  0  0
  2  6  1  0  0  0  0
  3  7  1  0  0  0  0
  3  8  2  0  0  0  0
  3  9  2  0  0  0  0
  4 10  2  0  0  0  0
  4 18  1  0  0  0  0
  5 11  1  0  0  0  0
  5 12  2  0  0  0  0
  6 13  2  0  0  0  0
  6 19  1  0  0  0  0
  7 14  1  0  0  0  0
  7 20  1  0  0  0  0
 10 12  1  0  0  0  0
 10 21  1  0  0  0  0
 11 15  2  0  0  0  0
 11 22  1  0  0  0  0
 12 23  1  0  0  0  0
 13 15  1  0  0  0  0
 13 24  1  0  0  0  0
 14 16  1  0  0  0  0
 14 25  1  0  0  0  0
 14 26  1  0  0  0  0
 15 27  1  0  0  0  0
 16 17  1  0  0  0  0
 16 28  1  0  0  0  0
 16 29  1  0  0  0  0
 17 30  1  0  0  0  0
 17 31  1  0  0  0  0
M  END
>  <Mol_ID>
6458

>  <Formula>
C12H14Cl2N2O2S

>  <MolWeight>
321.22276

>  <Cat>
E2506

>  <Name>
A-3 hydrochloride

>  <Target>
Casein Kinase,MLCK,PKA,PKC

>  <Form>
hydrochloride

>  <CAS>
78957-85-4

>  <URL>
http://www.selleckchem.com/products/a-3-hydrochloride.html

$$$$
