a-L-Rhamnopyranose
 OpenBabel08302521373D

 23 23  0  0  1  0  0  0  0  0999 V2000
    1.0854    0.0318    0.0585 O   0  0  0  0  0  0  0  0  0  0  0  0
    4.3294    1.3664   -0.9897 O   0  0  0  0  0  0  0  0  0  0  0  0
    4.4953   -1.5983   -0.3291 C   0  0  0  0  0  0  0  0  0  0  0  0
    2.9103    1.7268   -3.4417 O   0  0  0  0  0  0  0  0  0  0  0  0
    2.5072   -1.0274   -4.0845 O   0  0  0  0  0  0  0  0  0  0  0  0
    2.5156    0.0473   -0.0639 C   0  0  2  0  0  0  0  0  0  0  0  0
    2.9153    1.1534   -1.0557 C   0  0  2  0  0  0  0  0  0  0  0  0
    3.0012   -1.3477   -0.5197 C   0  0  1  0  0  0  0  0  0  0  0  0
    2.4858    0.7579   -2.4738 C   0  0  2  0  0  0  0  0  0  0  0  0
    2.5789   -1.6164   -1.8683 O   0  0  0  0  0  0  0  0  0  0  0  0
    3.0181   -0.6453   -2.8107 C   0  0  1  0  0  0  0  0  0  0  0  0
    0.7375   -0.6256   -0.5736 H   0  0  0  0  0  0  0  0  0  0  0  0
    4.5060    1.8960   -0.1920 H   0  0  0  0  0  0  0  0  0  0  0  0
    4.7943   -1.4117    0.7060 H   0  0  0  0  0  0  0  0  0  0  0  0
    4.7320   -2.6395   -0.5742 H   0  0  0  0  0  0  0  0  0  0  0  0
    5.1211   -0.9854   -0.9827 H   0  0  0  0  0  0  0  0  0  0  0  0
    2.9044    1.2664   -4.3032 H   0  0  0  0  0  0  0  0  0  0  0  0
    1.6047   -1.3387   -3.9003 H   0  0  0  0  0  0  0  0  0  0  0  0
    2.9201    0.2694    0.9293 H   0  0  0  0  0  0  0  0  0  0  0  0
    2.4310    2.1034   -0.7984 H   0  0  0  0  0  0  0  0  0  0  0  0
    2.4763   -2.0937    0.0922 H   0  0  0  0  0  0  0  0  0  0  0  0
    1.3898    0.7390   -2.5228 H   0  0  0  0  0  0  0  0  0  0  0  0
    4.1082   -0.6498   -2.9082 H   0  0  0  0  0  0  0  0  0  0  0  0
  1 12  1  0  0  0  0
  2 13  1  0  0  0  0
  3 14  1  0  0  0  0
  3 15  1  0  0  0  0
  3 16  1  0  0  0  0
  4 17  1  0  0  0  0
  5 18  1  0  0  0  0
  6  1  1  0  0  0  0
  6  7  1  0  0  0  0
  6  8  1  0  0  0  0
  6 19  1  1  0  0  0
  7  9  1  0  0  0  0
  7 20  1  1  0  0  0
  7  2  1  0  0  0  0
  8  3  1  0  0  0  0
  8 10  1  0  0  0  0
  8 21  1  1  0  0  0
  9 11  1  0  0  0  0
  9 22  1  6  0  0  0
  9  4  1  0  0  0  0
 10 11  1  0  0  0  0
 11  5  1  0  0  0  0
 11 23  1  6  0  0  0
M  END
>  <Mol_ID>
7386

>  <Formula>
C6H12O5

>  <MolWeight>
164.15648

>  <Cat>
E4457

>  <Name>
a-L-Rhamnopyranose

>  <Synonyms>
L-rhamnopyranose, L-Rhamnose

>  <Target>
Others

>  <Form>
Free base

>  <CAS>
6014-42-2

>  <URL>
https://www.selleckchem.com/products/alpha-l-rhamnopyranose.html

$$$$
