A2ti-2
 OpenBabel08302521373D

 43 45  0  0  0  0  0  0  0  0999 V2000
    1.0081    0.0239    0.0398 C   0  0  0  0  0  0  0  0  0  0  0  0
    0.4547    0.9315    1.0011 O   0  0  0  0  0  0  0  0  0  0  0  0
   -0.9131   -0.8155   -4.8164 S   0  0  0  0  0  0  0  0  0  0  0  0
   -0.8525    0.6473   -5.9017 C   0  0  0  0  0  0  0  0  0  0  0  0
   -1.4448    0.2994   -7.2514 C   0  0  0  0  0  0  0  0  0  0  0  0
   -2.7983    0.4582   -7.3629 N   0  0  0  0  0  0  0  0  0  0  0  0
   -0.7820   -0.0950   -8.2059 O   0  0  0  0  0  0  0  0  0  0  0  0
   -1.0435    2.2115    3.0649 C   0  0  0  0  0  0  0  0  0  0  0  0
   -0.0564   -0.8021   -2.1548 N   0  0  0  0  0  0  0  0  0  0  0  0
    0.3207    0.2188   -1.2726 C   0  0  0  0  0  0  0  0  0  0  0  0
   -0.2974   -0.1267   -3.3449 C   0  0  0  0  0  0  0  0  0  0  0  0
    0.2430    1.3834   -1.8904 N   0  0  0  0  0  0  0  0  0  0  0  0
   -0.1343    1.1646   -3.1796 N   0  0  0  0  0  0  0  0  0  0  0  0
   -0.0840   -2.2015   -1.8776 C   0  0  0  0  0  0  0  0  0  0  0  0
   -0.5298   -2.6536   -0.6280 C   0  0  0  0  0  0  0  0  0  0  0  0
    0.3857   -3.1378   -2.8084 C   0  0  0  0  0  0  0  0  0  0  0  0
   -0.4279   -4.0085   -0.2830 C   0  0  0  0  0  0  0  0  0  0  0  0
    0.4585   -4.4903   -2.4735 C   0  0  0  0  0  0  0  0  0  0  0  0
    0.0710   -4.9237   -1.2038 C   0  0  0  0  0  0  0  0  0  0  0  0
    0.9179    0.7702    2.2889 C   0  0  0  0  0  0  0  0  0  0  0  0
    0.1755    1.3691    3.3215 C   0  0  0  0  0  0  0  0  0  0  0  0
    2.0755    0.0454    2.6114 C   0  0  0  0  0  0  0  0  0  0  0  0
    0.6033    1.2155    4.6534 C   0  0  0  0  0  0  0  0  0  0  0  0
    2.4745   -0.1198    3.9385 C   0  0  0  0  0  0  0  0  0  0  0  0
    1.7358    0.4615    4.9595 C   0  0  0  0  0  0  0  0  0  0  0  0
    0.9200   -0.9920    0.4208 H   0  0  0  0  0  0  0  0  0  0  0  0
    2.0685    0.2485   -0.1187 H   0  0  0  0  0  0  0  0  0  0  0  0
   -1.4210    1.4765   -5.4668 H   0  0  0  0  0  0  0  0  0  0  0  0
    0.1801    0.9801   -6.0510 H   0  0  0  0  0  0  0  0  0  0  0  0
   -3.2243    0.1673   -8.2337 H   0  0  0  0  0  0  0  0  0  0  0  0
   -3.3929    0.5580   -6.5508 H   0  0  0  0  0  0  0  0  0  0  0  0
   -1.8063    2.0132    3.8273 H   0  0  0  0  0  0  0  0  0  0  0  0
   -0.7796    3.2732    3.1051 H   0  0  0  0  0  0  0  0  0  0  0  0
   -1.5023    1.9981    2.0960 H   0  0  0  0  0  0  0  0  0  0  0  0
   -0.9740   -1.9817    0.1030 H   0  0  0  0  0  0  0  0  0  0  0  0
    0.7608   -2.8419   -3.7863 H   0  0  0  0  0  0  0  0  0  0  0  0
   -0.7369   -4.3436    0.7045 H   0  0  0  0  0  0  0  0  0  0  0  0
    0.8381   -5.2134   -3.1923 H   0  0  0  0  0  0  0  0  0  0  0  0
    0.1563   -5.9753   -0.9342 H   0  0  0  0  0  0  0  0  0  0  0  0
    2.7061   -0.4064    1.8527 H   0  0  0  0  0  0  0  0  0  0  0  0
    0.0466    1.6802    5.4621 H   0  0  0  0  0  0  0  0  0  0  0  0
    3.3671   -0.6959    4.1689 H   0  0  0  0  0  0  0  0  0  0  0  0
    2.0480    0.3408    5.9940 H   0  0  0  0  0  0  0  0  0  0  0  0
  1  2  1  0  0  0  0
  1 10  1  0  0  0  0
  1 26  1  0  0  0  0
  1 27  1  0  0  0  0
  2 20  1  0  0  0  0
  3  4  1  0  0  0  0
  3 11  1  0  0  0  0
  4  5  1  0  0  0  0
  4 28  1  0  0  0  0
  4 29  1  0  0  0  0
  5  6  1  0  0  0  0
  5  7  2  0  0  0  0
  6 30  1  0  0  0  0
  6 31  1  0  0  0  0
  8 21  1  0  0  0  0
  8 32  1  0  0  0  0
  8 33  1  0  0  0  0
  8 34  1  0  0  0  0
  9 10  1  0  0  0  0
  9 11  1  0  0  0  0
  9 14  1  0  0  0  0
 10 12  2  0  0  0  0
 11 13  2  0  0  0  0
 12 13  1  0  0  0  0
 14 15  2  0  0  0  0
 14 16  1  0  0  0  0
 15 17  1  0  0  0  0
 15 35  1  0  0  0  0
 16 18  2  0  0  0  0
 16 36  1  0  0  0  0
 17 19  2  0  0  0  0
 17 37  1  0  0  0  0
 18 19  1  0  0  0  0
 18 38  1  0  0  0  0
 19 39  1  0  0  0  0
 20 21  2  0  0  0  0
 20 22  1  0  0  0  0
 21 23  1  0  0  0  0
 22 24  2  0  0  0  0
 22 40  1  0  0  0  0
 23 25  2  0  0  0  0
 23 41  1  0  0  0  0
 24 25  1  0  0  0  0
 24 42  1  0  0  0  0
 25 43  1  0  0  0  0
M  END
>  <Mol_ID>
7546

>  <Formula>
C18H18N4O2S

>  <MolWeight>
354.42612

>  <Cat>
E1436

>  <Name>
A2ti-2

>  <Target>
Anti-infection

>  <Form>
free base

>  <CAS>
482646-13-9

>  <URL>
https://www.selleckchem.com/products/a2ti-2.html

$$$$
