AA147
 OpenBabel08302521323D

 36 37  0  0  0  0  0  0  0  0999 V2000
    1.7301   -1.5076   -2.4839 C   0  0  0  0  0  0  0  0  0  0  0  0
    2.3160   -1.2547   -3.7207 C   0  0  0  0  0  0  0  0  0  0  0  0
    1.6705   -1.6529   -4.8970 C   0  0  0  0  0  0  0  0  0  0  0  0
    0.4543   -2.3428   -4.8574 C   0  0  0  0  0  0  0  0  0  0  0  0
   -0.0851   -2.6952   -3.6296 C   0  0  0  0  0  0  0  0  0  0  0  0
    0.5560   -2.2928   -2.4550 C   0  0  0  0  0  0  0  0  0  0  0  0
    3.6719    1.3471   -1.5732 C   0  0  0  0  0  0  0  0  0  0  0  0
    3.4808   -0.0776   -1.0184 C   0  0  0  0  0  0  0  0  0  0  0  0
    2.2451   -0.9775   -1.1667 C   0  0  0  0  0  0  0  0  0  0  0  0
    4.7242    1.9386   -1.3175 O   0  0  0  0  0  0  0  0  0  0  0  0
    2.6197    1.9431   -2.2100 N   0  0  0  0  0  0  0  0  0  0  0  0
    2.5077    3.3204   -2.5586 C   0  0  0  0  0  0  0  0  0  0  0  0
    1.2144    3.8314   -2.4467 C   0  0  0  0  0  0  0  0  0  0  0  0
    0.8490    5.0775   -2.9187 C   0  0  0  0  0  0  0  0  0  0  0  0
    1.8414    5.9247   -3.3900 C   0  0  0  0  0  0  0  0  0  0  0  0
    3.1922    5.5365   -3.3224 C   0  0  0  0  0  0  0  0  0  0  0  0
    3.5265    4.2078   -2.9637 C   0  0  0  0  0  0  0  0  0  0  0  0
    4.2382    6.5962   -3.5417 C   0  0  0  0  0  0  0  0  0  0  0  0
    0.3379    3.1527   -1.6530 O   0  0  0  0  0  0  0  0  0  0  0  0
    3.2690   -0.7380   -3.7993 H   0  0  0  0  0  0  0  0  0  0  0  0
    2.1176   -1.4262   -5.8608 H   0  0  0  0  0  0  0  0  0  0  0  0
   -0.0527   -2.6142   -5.7792 H   0  0  0  0  0  0  0  0  0  0  0  0
   -1.0063   -3.2703   -3.5816 H   0  0  0  0  0  0  0  0  0  0  0  0
    0.1167   -2.5889   -1.5026 H   0  0  0  0  0  0  0  0  0  0  0  0
    3.5563    0.0793    0.0703 H   0  0  0  0  0  0  0  0  0  0  0  0
    4.3695   -0.6455   -1.3123 H   0  0  0  0  0  0  0  0  0  0  0  0
    1.3978   -0.4882   -0.6691 H   0  0  0  0  0  0  0  0  0  0  0  0
    2.4671   -1.8768   -0.5671 H   0  0  0  0  0  0  0  0  0  0  0  0
    1.7448    1.4297   -2.2653 H   0  0  0  0  0  0  0  0  0  0  0  0
   -0.1760    5.4210   -2.8315 H   0  0  0  0  0  0  0  0  0  0  0  0
    1.5668    6.9258   -3.7194 H   0  0  0  0  0  0  0  0  0  0  0  0
    4.5647    3.8857   -2.9728 H   0  0  0  0  0  0  0  0  0  0  0  0
    4.8298    6.7283   -2.6291 H   0  0  0  0  0  0  0  0  0  0  0  0
    4.8932    6.3614   -4.3831 H   0  0  0  0  0  0  0  0  0  0  0  0
    3.7733    7.5723   -3.7491 H   0  0  0  0  0  0  0  0  0  0  0  0
    0.8488    2.9827   -0.8179 H   0  0  0  0  0  0  0  0  0  0  0  0
  1  2  2  0  0  0  0
  1  6  1  0  0  0  0
  1  9  1  0  0  0  0
  2  3  1  0  0  0  0
  2 20  1  0  0  0  0
  3  4  2  0  0  0  0
  3 21  1  0  0  0  0
  4  5  1  0  0  0  0
  4 22  1  0  0  0  0
  5  6  2  0  0  0  0
  5 23  1  0  0  0  0
  6 24  1  0  0  0  0
  7  8  1  0  0  0  0
  7 10  2  0  0  0  0
  7 11  1  0  0  0  0
  8  9  1  0  0  0  0
  8 25  1  0  0  0  0
  8 26  1  0  0  0  0
  9 27  1  0  0  0  0
  9 28  1  0  0  0  0
 11 12  1  0  0  0  0
 11 29  1  0  0  0  0
 12 13  2  0  0  0  0
 12 17  1  0  0  0  0
 13 14  1  0  0  0  0
 13 19  1  0  0  0  0
 14 15  2  0  0  0  0
 14 30  1  0  0  0  0
 15 16  1  0  0  0  0
 15 31  1  0  0  0  0
 16 17  2  0  0  0  0
 16 18  1  0  0  0  0
 17 32  1  0  0  0  0
 18 33  1  0  0  0  0
 18 34  1  0  0  0  0
 18 35  1  0  0  0  0
 19 36  1  0  0  0  0
M  END
>  <Mol_ID>
6327

>  <Formula>
C16H17NO2

>  <MolWeight>
255.31168

>  <Cat>
E0745

>  <Name>
AA147

>  <Target>
Others

>  <Form>
free base

>  <CAS>
393121-74-9

>  <URL>
http://www.selleckchem.com/products/aa147.html

$$$$
