Abametapir
 OpenBabel08302520343D

 26 27  0  0  0  0  0  0  0  0999 V2000
   -1.7325    0.1097   -0.0196 C   0  0  0  0  0  0  0  0  0  0  0  0
   -3.2140    0.1086   -0.0930 C   0  0  0  0  0  0  0  0  0  0  0  0
   -0.9918    1.2926    0.0084 C   0  0  0  0  0  0  0  0  0  0  0  0
   -1.1172   -1.1059   -0.0094 N   0  0  0  0  0  0  0  0  0  0  0  0
   -3.9564   -1.0738   -0.0925 C   0  0  0  0  0  0  0  0  0  0  0  0
   -3.8249    1.3224   -0.1913 N   0  0  0  0  0  0  0  0  0  0  0  0
    0.4012    1.2361    0.0275 C   0  0  0  0  0  0  0  0  0  0  0  0
    0.2350   -1.1316    0.0089 C   0  0  0  0  0  0  0  0  0  0  0  0
   -5.3445   -1.0193   -0.2129 C   0  0  0  0  0  0  0  0  0  0  0  0
   -5.1722    1.3466   -0.3075 C   0  0  0  0  0  0  0  0  0  0  0  0
    1.0394   -0.0005    0.0198 C   0  0  0  0  0  0  0  0  0  0  0  0
   -5.9763    0.2148   -0.3321 C   0  0  0  0  0  0  0  0  0  0  0  0
    2.5295   -0.1221    0.0177 C   0  0  0  0  0  0  0  0  0  0  0  0
   -7.4585    0.3339   -0.4857 C   0  0  0  0  0  0  0  0  0  0  0  0
   -1.4938    2.2560    0.0035 H   0  0  0  0  0  0  0  0  0  0  0  0
   -3.4582   -2.0356   -0.0104 H   0  0  0  0  0  0  0  0  0  0  0  0
    0.9724    2.1606    0.0396 H   0  0  0  0  0  0  0  0  0  0  0  0
    0.6681   -2.1286    0.0077 H   0  0  0  0  0  0  0  0  0  0  0  0
   -5.9158   -1.9433   -0.2214 H   0  0  0  0  0  0  0  0  0  0  0  0
   -5.6012    2.3417   -0.3906 H   0  0  0  0  0  0  0  0  0  0  0  0
    2.8684   -0.6488    0.9153 H   0  0  0  0  0  0  0  0  0  0  0  0
    2.8614   -0.6719   -0.8692 H   0  0  0  0  0  0  0  0  0  0  0  0
    3.0117    0.8609    0.0006 H   0  0  0  0  0  0  0  0  0  0  0  0
   -7.8830    0.8936    0.3535 H   0  0  0  0  0  0  0  0  0  0  0  0
   -7.7005    0.8490   -1.4212 H   0  0  0  0  0  0  0  0  0  0  0  0
   -7.9385   -0.6499   -0.5128 H   0  0  0  0  0  0  0  0  0  0  0  0
  1  2  1  0  0  0  0
  1  3  2  0  0  0  0
  1  4  1  0  0  0  0
  2  5  2  0  0  0  0
  2  6  1  0  0  0  0
  3  7  1  0  0  0  0
  3 15  1  0  0  0  0
  4  8  2  0  0  0  0
  5  9  1  0  0  0  0
  5 16  1  0  0  0  0
  6 10  2  0  0  0  0
  7 11  2  0  0  0  0
  7 17  1  0  0  0  0
  8 11  1  0  0  0  0
  8 18  1  0  0  0  0
  9 12  2  0  0  0  0
  9 19  1  0  0  0  0
 10 12  1  0  0  0  0
 10 20  1  0  0  0  0
 11 13  1  0  0  0  0
 12 14  1  0  0  0  0
 13 21  1  0  0  0  0
 13 22  1  0  0  0  0
 13 23  1  0  0  0  0
 14 24  1  0  0  0  0
 14 25  1  0  0  0  0
 14 26  1  0  0  0  0
M  END
>  <Mol_ID>
3394

>  <Formula>
C12H12N2

>  <MolWeight>
184.23708

>  <Cat>
S5752

>  <Name>
Abametapir

>  <Synonyms>
HA-44, BRN 0123183

>  <Target>
MMP

>  <Form>
Free Base

>  <CAS>
1762-34-1

>  <URL>
http://www.selleckchem.com/products/abametapir.html

$$$$
