Abscisic acid.cdx
 OpenBabel08302519583D

 39 39  0  0  0  0  0  0  0  0999 V2000
    0.2614    1.4900    0.0331 C   0  0  0  0  0  0  0  0  0  0  0  0
   -1.1603    1.0224   -0.0409 C   0  0  0  0  0  0  0  0  0  0  0  0
   -1.4648   -0.4034   -0.1145 C   0  0  0  0  0  0  0  0  0  0  0  0
   -0.5169   -1.3481   -0.1330 C   0  0  0  0  0  0  0  0  0  0  0  0
    0.9787   -1.0906   -0.0518 C   0  0  1  0  0  0  0  0  0  0  0  0
    1.4209    0.4564   -0.0770 C   0  0  0  0  0  0  0  0  0  0  0  0
   -2.0940    1.8247   -0.0252 O   0  0  0  0  0  0  0  0  0  0  0  0
    2.2037    0.7880   -1.3795 C   0  0  0  0  0  0  0  0  0  0  0  0
    2.3895    0.8209    1.0890 C   0  0  0  0  0  0  0  0  0  0  0  0
    1.6379   -1.8656    1.0923 C   0  0  0  0  0  0  0  0  0  0  0  0
    1.0680   -2.2099    2.2617 C   0  0  0  0  0  0  0  0  0  0  0  0
    1.4565   -1.7259   -1.2526 O   0  0  0  0  0  0  0  0  0  0  0  0
    1.6975   -2.9142    3.3748 C   0  0  0  0  0  0  0  0  0  0  0  0
    1.0485   -3.2379    4.5148 C   0  0  0  0  0  0  0  0  0  0  0  0
    3.1610   -3.2720    3.2460 C   0  0  0  0  0  0  0  0  0  0  0  0
   -0.3753   -3.0101    4.8220 C   0  0  0  0  0  0  0  0  0  0  0  0
   -1.2975   -2.8144    4.0541 O   0  0  0  0  0  0  0  0  0  0  0  0
   -0.5709   -3.0524    6.1511 O   0  0  0  0  0  0  0  0  0  0  0  0
   -0.9941   -2.7753   -0.2966 C   0  0  0  0  0  0  0  0  0  0  0  0
    0.3248    2.0360    0.9838 H   0  0  0  0  0  0  0  0  0  0  0  0
    0.3615    2.2474   -0.7568 H   0  0  0  0  0  0  0  0  0  0  0  0
   -2.5206   -0.6470   -0.1771 H   0  0  0  0  0  0  0  0  0  0  0  0
    2.5052    1.8418   -1.4100 H   0  0  0  0  0  0  0  0  0  0  0  0
    3.1261    0.2001   -1.4545 H   0  0  0  0  0  0  0  0  0  0  0  0
    1.5937    0.5956   -2.2688 H   0  0  0  0  0  0  0  0  0  0  0  0
    1.9285    0.6322    2.0653 H   0  0  0  0  0  0  0  0  0  0  0  0
    3.3325    0.2671    1.0307 H   0  0  0  0  0  0  0  0  0  0  0  0
    2.6473    1.8877    1.0660 H   0  0  0  0  0  0  0  0  0  0  0  0
    2.6805   -2.1271    0.9235 H   0  0  0  0  0  0  0  0  0  0  0  0
    0.0313   -1.9098    2.4104 H   0  0  0  0  0  0  0  0  0  0  0  0
    2.4197   -1.8188   -1.1934 H   0  0  0  0  0  0  0  0  0  0  0  0
    1.5880   -3.7296    5.3238 H   0  0  0  0  0  0  0  0  0  0  0  0
    3.3138   -3.9991    2.4402 H   0  0  0  0  0  0  0  0  0  0  0  0
    3.7631   -2.3807    3.0358 H   0  0  0  0  0  0  0  0  0  0  0  0
    3.5658   -3.7171    4.1626 H   0  0  0  0  0  0  0  0  0  0  0  0
   -1.5347   -2.8838    6.2425 H   0  0  0  0  0  0  0  0  0  0  0  0
   -1.7021   -3.0377    0.4977 H   0  0  0  0  0  0  0  0  0  0  0  0
   -1.4952   -2.8944   -1.2640 H   0  0  0  0  0  0  0  0  0  0  0  0
   -0.1785   -3.5032   -0.2620 H   0  0  0  0  0  0  0  0  0  0  0  0
  1  2  1  0  0  0  0
  1 20  1  0  0  0  0
  1 21  1  0  0  0  0
  2  3  1  0  0  0  0
  2  7  2  0  0  0  0
  3  4  2  0  0  0  0
  3 22  1  0  0  0  0
  4  5  1  0  0  0  0
  4 19  1  0  0  0  0
  5  6  1  0  0  0  0
  5 12  1  6  0  0  0
  5 10  1  0  0  0  0
  6  1  1  0  0  0  0
  6  8  1  0  0  0  0
  6  9  1  0  0  0  0
  8 23  1  0  0  0  0
  8 24  1  0  0  0  0
  8 25  1  0  0  0  0
  9 26  1  0  0  0  0
  9 27  1  0  0  0  0
  9 28  1  0  0  0  0
 10 11  2  0  0  0  0
 10 29  1  0  0  0  0
 11 13  1  0  0  0  0
 11 30  1  0  0  0  0
 12 31  1  0  0  0  0
 13 14  2  0  0  0  0
 13 15  1  0  0  0  0
 14 16  1  0  0  0  0
 14 32  1  0  0  0  0
 15 33  1  0  0  0  0
 15 34  1  0  0  0  0
 15 35  1  0  0  0  0
 16 17  2  0  0  0  0
 16 18  1  0  0  0  0
 18 36  1  0  0  0  0
 19 37  1  0  0  0  0
 19 38  1  0  0  0  0
 19 39  1  0  0  0  0
M  END
>  <Mol_ID>
2476

>  <Formula>
C15H20O4

>  <MolWeight>
264.3169

>  <Cat>
S7594

>  <Name>
Abscisic Acid (Dormin)

>  <Synonyms>
Abscisin II

>  <Target>
Others

>  <Form>
free base

>  <CAS>
21293-29-8

>  <URL>
http://selleckchem.com/products/abscisic-acid-dormin.html

$$$$
