AC1903
 OpenBabel08302521283D

 40 43  0  0  0  0  0  0  0  0999 V2000
    0.2808    0.8087   -1.3758 O   0  0  0  0  0  0  0  0  0  0  0  0
   -3.8968    2.9594   -1.8620 N   0  0  0  0  0  0  0  0  0  0  0  0
   -1.6016    2.7174   -1.2303 N   0  0  0  0  0  0  0  0  0  0  0  0
   -3.1529    4.1374   -0.1278 N   0  0  0  0  0  0  0  0  0  0  0  0
   -4.9357    3.8009   -1.5083 C   0  0  0  0  0  0  0  0  0  0  0  0
   -3.9208    1.8700   -2.8371 C   0  0  0  0  0  0  0  0  0  0  0  0
   -2.8146    3.2744   -1.0568 C   0  0  0  0  0  0  0  0  0  0  0  0
   -4.4547    4.4687   -0.3859 C   0  0  0  0  0  0  0  0  0  0  0  0
   -5.2578    1.1758   -2.9666 C   0  0  0  0  0  0  0  0  0  0  0  0
   -6.2307    4.0127   -1.9973 C   0  0  0  0  0  0  0  0  0  0  0  0
   -0.6702    2.6740   -0.1146 C   0  0  0  0  0  0  0  0  0  0  0  0
   -5.3008    5.3431    0.3141 C   0  0  0  0  0  0  0  0  0  0  0  0
   -7.0699    4.8663   -1.2762 C   0  0  0  0  0  0  0  0  0  0  0  0
   -6.6180    5.5163   -0.1305 C   0  0  0  0  0  0  0  0  0  0  0  0
   -5.9476    1.1965   -4.1893 C   0  0  0  0  0  0  0  0  0  0  0  0
   -5.8598    0.5534   -1.8600 C   0  0  0  0  0  0  0  0  0  0  0  0
    0.3255    1.5614   -0.2319 C   0  0  0  0  0  0  0  0  0  0  0  0
   -7.2392    0.6747   -4.2817 C   0  0  0  0  0  0  0  0  0  0  0  0
   -7.1499    0.0299   -1.9570 C   0  0  0  0  0  0  0  0  0  0  0  0
    1.3139    1.0827    0.6025 C   0  0  0  0  0  0  0  0  0  0  0  0
   -7.8438    0.1044   -3.1634 C   0  0  0  0  0  0  0  0  0  0  0  0
    1.8973   -0.0236   -0.0623 C   0  0  0  0  0  0  0  0  0  0  0  0
    1.2364   -0.1467   -1.2592 C   0  0  0  0  0  0  0  0  0  0  0  0
   -1.3829    2.0385   -1.9511 H   0  0  0  0  0  0  0  0  0  0  0  0
   -3.5918    2.3029   -3.7892 H   0  0  0  0  0  0  0  0  0  0  0  0
   -3.1873    1.1144   -2.5349 H   0  0  0  0  0  0  0  0  0  0  0  0
   -6.6046    3.5212   -2.8856 H   0  0  0  0  0  0  0  0  0  0  0  0
   -1.2099    2.5322    0.8301 H   0  0  0  0  0  0  0  0  0  0  0  0
   -0.1338    3.6270   -0.0515 H   0  0  0  0  0  0  0  0  0  0  0  0
   -4.9372    5.8599    1.1958 H   0  0  0  0  0  0  0  0  0  0  0  0
   -8.0951    5.0120   -1.6109 H   0  0  0  0  0  0  0  0  0  0  0  0
   -7.2914    6.1672    0.4239 H   0  0  0  0  0  0  0  0  0  0  0  0
   -5.5044    1.6639   -5.0669 H   0  0  0  0  0  0  0  0  0  0  0  0
   -5.3464    0.5205   -0.9004 H   0  0  0  0  0  0  0  0  0  0  0  0
   -7.7827    0.7334   -5.2217 H   0  0  0  0  0  0  0  0  0  0  0  0
   -7.6228   -0.4115   -1.0843 H   0  0  0  0  0  0  0  0  0  0  0  0
    1.5713    1.4765    1.5769 H   0  0  0  0  0  0  0  0  0  0  0  0
   -8.8599   -0.2768   -3.2294 H   0  0  0  0  0  0  0  0  0  0  0  0
    2.7035   -0.6576    0.2912 H   0  0  0  0  0  0  0  0  0  0  0  0
    1.3181   -0.8293   -2.0953 H   0  0  0  0  0  0  0  0  0  0  0  0
  1 17  1  0  0  0  0
  1 23  1  0  0  0  0
  2  5  1  0  0  0  0
  2  6  1  0  0  0  0
  2  7  1  0  0  0  0
  3  7  1  0  0  0  0
  3 11  1  0  0  0  0
  3 24  1  0  0  0  0
  4  7  2  0  0  0  0
  4  8  1  0  0  0  0
  5  8  2  0  0  0  0
  5 10  1  0  0  0  0
  6  9  1  0  0  0  0
  6 25  1  0  0  0  0
  6 26  1  0  0  0  0
  8 12  1  0  0  0  0
  9 15  2  0  0  0  0
  9 16  1  0  0  0  0
 10 13  2  0  0  0  0
 10 27  1  0  0  0  0
 11 17  1  0  0  0  0
 11 28  1  0  0  0  0
 11 29  1  0  0  0  0
 12 14  2  0  0  0  0
 12 30  1  0  0  0  0
 13 14  1  0  0  0  0
 13 31  1  0  0  0  0
 14 32  1  0  0  0  0
 15 18  1  0  0  0  0
 15 33  1  0  0  0  0
 16 19  2  0  0  0  0
 16 34  1  0  0  0  0
 17 20  2  0  0  0  0
 18 21  2  0  0  0  0
 18 35  1  0  0  0  0
 19 21  1  0  0  0  0
 19 36  1  0  0  0  0
 20 22  1  0  0  0  0
 20 37  1  0  0  0  0
 21 38  1  0  0  0  0
 22 23  2  0  0  0  0
 22 39  1  0  0  0  0
 23 40  1  0  0  0  0
M  END
>  <Mol_ID>
5409

>  <Formula>
C19H17N3O

>  <MolWeight>
303.35778

>  <Cat>
S0977

>  <Name>
AC1903

>  <Synonyms>
N/A

>  <Target>
TRP Channel

>  <Form>
Free Base

>  <CAS>
831234-13-0

>  <URL>
https://www.selleckchem.com/products/ac1903.html

$$$$
