Acetylcholine Chloride
 OpenBabel08302520393D

 26 25  0  0  0  0  0  0  0  0999 V2000
   -3.2662    4.0254   -2.6567 C   0  0  0  0  0  0  0  0  0  0  0  0
   -2.3868    2.8240   -2.5006 C   0  0  0  0  0  0  0  0  0  0  0  0
   -1.5436    2.9690   -1.4386 O   0  0  0  0  0  0  0  0  0  0  0  0
   -0.6675    1.8504   -1.2059 C   0  0  0  0  0  0  0  0  0  0  0  0
    0.5196    1.8811   -2.1832 C   0  0  0  0  0  0  0  0  0  0  0  0
    1.6196    0.8319   -1.9037 N   0  3  0  0  0  0  0  0  0  0  0  0
    2.2653    1.0547   -0.5402 C   0  0  0  0  0  0  0  0  0  0  0  0
    1.0634   -0.5853   -1.9895 C   0  0  0  0  0  0  0  0  0  0  0  0
    2.6915    0.9855   -2.9883 C   0  0  0  0  0  0  0  0  0  0  0  0
   -2.3595    1.8668   -3.2604 O   0  0  0  0  0  0  0  0  0  0  0  0
   -3.5509    4.4174   -1.6772 H   0  0  0  0  0  0  0  0  0  0  0  0
   -4.1835    3.7384   -3.1809 H   0  0  0  0  0  0  0  0  0  0  0  0
   -2.7377    4.7915   -3.2282 H   0  0  0  0  0  0  0  0  0  0  0  0
   -0.3223    1.9436   -0.1746 H   0  0  0  0  0  0  0  0  0  0  0  0
   -1.2300    0.9119   -1.2707 H   0  0  0  0  0  0  0  0  0  0  0  0
    0.1895    1.7302   -3.2149 H   0  0  0  0  0  0  0  0  0  0  0  0
    1.0019    2.8660   -2.1413 H   0  0  0  0  0  0  0  0  0  0  0  0
    1.6020    0.6559    0.2321 H   0  0  0  0  0  0  0  0  0  0  0  0
    3.2221    0.5256   -0.5140 H   0  0  0  0  0  0  0  0  0  0  0  0
    2.4206    2.1280   -0.3985 H   0  0  0  0  0  0  0  0  0  0  0  0
    0.5845   -0.7120   -2.9655 H   0  0  0  0  0  0  0  0  0  0  0  0
    1.8953   -1.2872   -1.8744 H   0  0  0  0  0  0  0  0  0  0  0  0
    0.3405   -0.7320   -1.1838 H   0  0  0  0  0  0  0  0  0  0  0  0
    2.2484    0.7166   -3.9527 H   0  0  0  0  0  0  0  0  0  0  0  0
    3.0296    2.0270   -2.9973 H   0  0  0  0  0  0  0  0  0  0  0  0
    3.5233    0.3152   -2.7560 H   0  0  0  0  0  0  0  0  0  0  0  0
  1  2  1  0  0  0  0
  1 11  1  0  0  0  0
  1 12  1  0  0  0  0
  1 13  1  0  0  0  0
  2  3  1  0  0  0  0
  2 10  2  0  0  0  0
  3  4  1  0  0  0  0
  4  5  1  0  0  0  0
  4 14  1  0  0  0  0
  4 15  1  0  0  0  0
  5  6  1  0  0  0  0
  5 16  1  0  0  0  0
  5 17  1  0  0  0  0
  6  7  1  0  0  0  0
  6  8  1  0  0  0  0
  6  9  1  0  0  0  0
  7 18  1  0  0  0  0
  7 19  1  0  0  0  0
  7 20  1  0  0  0  0
  8 21  1  0  0  0  0
  8 22  1  0  0  0  0
  8 23  1  0  0  0  0
  9 24  1  0  0  0  0
  9 25  1  0  0  0  0
  9 26  1  0  0  0  0
M  CHG  1   6   1
M  END
>  <Mol_ID>
3685

>  <Formula>
C7H16ClNO2

>  <MolWeight>
181.66044

>  <Cat>
S1805

>  <Name>
Acetylcholine Chloride

>  <Synonyms>
ACh chloride

>  <Target>
AChR

>  <Form>
Chloride

>  <CAS>
60-31-1

>  <URL>
http://www.selleck.cn/products/Acetylcholine-chloride.html

$$$$
