Acetaminophen
 OpenBabel08302521383D

 20 20  0  0  0  0  0  0  0  0999 V2000
    0.9285   -0.0696   -0.1323 N   0  0  0  0  0  0  0  0  0  0  0  0
    2.1592   -0.4091    0.3999 C   0  0  0  0  0  0  0  0  0  0  0  0
    2.5632    0.4413    1.5761 C   0  0  0  0  0  0  0  0  0  0  0  0
    2.9122   -1.2893   -0.0083 O   0  0  0  0  0  0  0  0  0  0  0  0
   -2.1215   -2.8309   -3.8900 O   0  0  0  0  0  0  0  0  0  0  0  0
    0.2119   -0.7958   -1.1097 C   0  0  0  0  0  0  0  0  0  0  0  0
    0.5580   -2.0924   -1.5037 C   0  0  0  0  0  0  0  0  0  0  0  0
   -0.9219   -0.1985   -1.6753 C   0  0  0  0  0  0  0  0  0  0  0  0
   -0.2129   -2.7875   -2.4403 C   0  0  0  0  0  0  0  0  0  0  0  0
   -1.6883   -0.8875   -2.6220 C   0  0  0  0  0  0  0  0  0  0  0  0
   -1.3336   -2.1795   -2.9887 C   0  0  0  0  0  0  0  0  0  0  0  0
    0.5144    0.8036    0.1701 H   0  0  0  0  0  0  0  0  0  0  0  0
    2.9788   -0.2122    2.3496 H   0  0  0  0  0  0  0  0  0  0  0  0
    3.3230    1.1596    1.2587 H   0  0  0  0  0  0  0  0  0  0  0  0
    1.7128    0.9758    2.0070 H   0  0  0  0  0  0  0  0  0  0  0  0
   -1.7894   -3.7393   -3.9855 H   0  0  0  0  0  0  0  0  0  0  0  0
    1.4150   -2.6048   -1.0782 H   0  0  0  0  0  0  0  0  0  0  0  0
   -1.2221    0.8090   -1.4016 H   0  0  0  0  0  0  0  0  0  0  0  0
    0.0804   -3.7953   -2.7163 H   0  0  0  0  0  0  0  0  0  0  0  0
   -2.5626   -0.4209   -3.0674 H   0  0  0  0  0  0  0  0  0  0  0  0
  1  2  1  0  0  0  0
  1  6  1  0  0  0  0
  1 12  1  0  0  0  0
  2  3  1  0  0  0  0
  2  4  2  0  0  0  0
  3 13  1  0  0  0  0
  3 14  1  0  0  0  0
  3 15  1  0  0  0  0
  5 11  1  0  0  0  0
  5 16  1  0  0  0  0
  6  7  2  0  0  0  0
  6  8  1  0  0  0  0
  7  9  1  0  0  0  0
  7 17  1  0  0  0  0
  8 10  2  0  0  0  0
  8 18  1  0  0  0  0
  9 11  2  0  0  0  0
  9 19  1  0  0  0  0
 10 11  1  0  0  0  0
 10 20  1  0  0  0  0
M  END
>  <Mol_ID>
7676

>  <Formula>
C8H9NO2

>  <MolWeight>
151.16256

>  <Cat>
S1634

>  <Name>
Acetaminophen

>  <Synonyms>
Paracetamol, Tylenol, APAP

>  <Target>
COX

>  <Form>
Free Base

>  <CAS>
103-90-2

>  <URL>
https://www.selleckchem.com/products/acetaminophen.html

$$$$
