Acetylcorynoline
 OpenBabel08302521253D

 53 58  0  0  0  0  0  0  0  0999 V2000
    1.0732    4.1634   -0.1216 O   0  0  0  0  0  0  0  0  0  0  0  0
   -3.8119    2.6327   -0.3426 O   0  0  0  0  0  0  0  0  0  0  0  0
   -4.9937    3.4935    1.5924 O   0  0  0  0  0  0  0  0  0  0  0  0
    1.5122    8.1508    2.8834 O   0  0  0  0  0  0  0  0  0  0  0  0
    3.7600    8.6232    2.1798 O   0  0  0  0  0  0  0  0  0  0  0  0
    1.4702    3.6492    2.0583 O   0  0  0  0  0  0  0  0  0  0  0  0
   -0.3044    5.1096   -2.1311 N   0  0  0  0  0  0  0  0  0  0  0  0
   -0.7071    6.3570   -0.3201 C   0  0  2  0  0  0  0  0  0  0  0  0
   -0.2323    6.5677   -1.6985 C   0  0  1  0  0  0  0  0  0  0  0  0
    0.9423    5.6059    0.1054 C   0  0  2  0  0  0  0  0  0  0  0  0
   -1.7411    5.5462    0.3303 C   0  0  0  0  0  0  0  0  0  0  0  0
    0.8720    7.7796   -0.8484 C   0  0  0  0  0  0  0  0  0  0  0  0
    2.2613    6.1088   -0.8419 C   0  0  0  0  0  0  0  0  0  0  0  0
   -1.7110    7.7282   -0.5342 C   0  0  0  0  0  0  0  0  0  0  0  0
    2.2209    7.6354   -1.0303 C   0  0  0  0  0  0  0  0  0  0  0  0
   -2.1349    4.4371   -0.3770 C   0  0  0  0  0  0  0  0  0  0  0  0
   -1.2743    4.0625   -1.5622 C   0  0  0  0  0  0  0  0  0  0  0  0
   -2.4012    5.9893    1.5189 C   0  0  0  0  0  0  0  0  0  0  0  0
    0.6204    8.2261    0.5892 C   0  0  0  0  0  0  0  0  0  0  0  0
    0.3541    4.5935   -3.3075 C   0  0  0  0  0  0  0  0  0  0  0  0
   -3.2422    3.7792    0.1356 C   0  0  0  0  0  0  0  0  0  0  0  0
    3.1582    8.3754   -0.2119 C   0  0  0  0  0  0  0  0  0  0  0  0
    1.6217    8.3640    1.5375 C   0  0  0  0  0  0  0  0  0  0  0  0
   -3.9180    4.2435    1.2540 C   0  0  0  0  0  0  0  0  0  0  0  0
   -3.5384    5.3489    1.9763 C   0  0  0  0  0  0  0  0  0  0  0  0
    2.9062    8.4956    1.1575 C   0  0  0  0  0  0  0  0  0  0  0  0
    1.4979    3.3589    0.8692 C   0  0  0  0  0  0  0  0  0  0  0  0
   -4.9056    2.4495    0.5862 C   0  0  0  0  0  0  0  0  0  0  0  0
    2.9099    8.1555    3.2501 C   0  0  0  0  0  0  0  0  0  0  0  0
    1.9972    2.0459    0.3564 C   0  0  0  0  0  0  0  0  0  0  0  0
   -0.6902    7.1649   -2.4875 H   0  0  0  0  0  0  0  0  0  0  0  0
    1.1366    5.8074    1.1599 H   0  0  0  0  0  0  0  0  0  0  0  0
    2.2479    5.6860   -1.8542 H   0  0  0  0  0  0  0  0  0  0  0  0
    3.2128    5.7863   -0.4089 H   0  0  0  0  0  0  0  0  0  0  0  0
   -1.3400    8.5129   -1.2200 H   0  0  0  0  0  0  0  0  0  0  0  0
   -2.6474    7.4066   -1.0198 H   0  0  0  0  0  0  0  0  0  0  0  0
   -2.0075    8.2649    0.3667 H   0  0  0  0  0  0  0  0  0  0  0  0
   -1.9241    3.6489   -2.3391 H   0  0  0  0  0  0  0  0  0  0  0  0
   -0.6706    3.2125   -1.2134 H   0  0  0  0  0  0  0  0  0  0  0  0
   -2.0980    6.8998    2.0223 H   0  0  0  0  0  0  0  0  0  0  0  0
   -0.3102    8.0701    1.1345 H   0  0  0  0  0  0  0  0  0  0  0  0
    1.2732    4.0735   -3.0175 H   0  0  0  0  0  0  0  0  0  0  0  0
   -0.2618    3.8351   -3.8150 H   0  0  0  0  0  0  0  0  0  0  0  0
    0.5730    5.3564   -4.0499 H   0  0  0  0  0  0  0  0  0  0  0  0
    4.1046    8.7219   -0.6239 H   0  0  0  0  0  0  0  0  0  0  0  0
   -4.1061    5.7226    2.8206 H   0  0  0  0  0  0  0  0  0  0  0  0
   -5.8427    2.4313    0.0225 H   0  0  0  0  0  0  0  0  0  0  0  0
   -4.7805    1.4855    1.0970 H   0  0  0  0  0  0  0  0  0  0  0  0
    3.2294    7.1330    3.5339 H   0  0  0  0  0  0  0  0  0  0  0  0
    3.0097    8.7936    4.1371 H   0  0  0  0  0  0  0  0  0  0  0  0
    2.4973    1.5433    1.1715 H   0  0  0  0  0  0  0  0  0  0  0  0
    1.1731    1.4198   -0.0036 H   0  0  0  0  0  0  0  0  0  0  0  0
    2.7340    2.2129   -0.4525 H   0  0  0  0  0  0  0  0  0  0  0  0
  1 27  1  0  0  0  0
  2 21  1  0  0  0  0
  2 28  1  0  0  0  0
  3 24  1  0  0  0  0
  3 28  1  0  0  0  0
  4 23  1  0  0  0  0
  4 29  1  0  0  0  0
  5 26  1  0  0  0  0
  5 29  1  0  0  0  0
  6 27  2  0  0  0  0
  7 17  1  0  0  0  0
  7 20  1  0  0  0  0
  8  9  1  0  0  0  0
  8 10  1  0  0  0  0
  8 11  1  0  0  0  0
  8 14  1  1  0  0  0
  9  7  1  0  0  0  0
  9 12  1  0  0  0  0
  9 31  1  6  0  0  0
 10 13  1  0  0  0  0
 10  1  1  0  0  0  0
 10 32  1  1  0  0  0
 11 16  1  0  0  0  0
 11 18  2  0  0  0  0
 12 15  2  0  0  0  0
 12 19  1  0  0  0  0
 13 15  1  0  0  0  0
 13 33  1  0  0  0  0
 13 34  1  0  0  0  0
 14 35  1  0  0  0  0
 14 36  1  0  0  0  0
 14 37  1  0  0  0  0
 15 22  1  0  0  0  0
 16 17  1  0  0  0  0
 16 21  2  0  0  0  0
 17 38  1  0  0  0  0
 17 39  1  0  0  0  0
 18 25  1  0  0  0  0
 18 40  1  0  0  0  0
 19 23  2  0  0  0  0
 19 41  1  0  0  0  0
 20 42  1  0  0  0  0
 20 43  1  0  0  0  0
 20 44  1  0  0  0  0
 21 24  1  0  0  0  0
 22 26  2  0  0  0  0
 22 45  1  0  0  0  0
 23 26  1  0  0  0  0
 24 25  2  0  0  0  0
 25 46  1  0  0  0  0
 27 30  1  0  0  0  0
 28 47  1  0  0  0  0
 28 48  1  0  0  0  0
 29 49  1  0  0  0  0
 29 50  1  0  0  0  0
 30 51  1  0  0  0  0
 30 52  1  0  0  0  0
 30 53  1  0  0  0  0
M  END
>  <Mol_ID>
5144

>  <Formula>
C23H23NO6

>  <MolWeight>
409.43182

>  <Cat>
S3269

>  <Name>
Acetylcorynoline

>  <Synonyms>
N/A

>  <Target>
Anti-infection,Apoptosis related,Proteasome

>  <Form>
free base

>  <CAS>
18797-80-3

>  <URL>
http://www.selleckchem.com/products/acetylcorynoline.html

$$$$
