Acetylleucine.cdx
 OpenBabel08302519503D

 27 26  0  0  0  0  0  0  0  0999 V2000
    0.9901   -0.0393   -0.1032 C   0  0  1  0  0  0  0  0  0  0  0  0
    2.4855    0.1871    0.1464 C   0  0  0  0  0  0  0  0  0  0  0  0
    0.7141   -1.3610   -0.6619 N   0  0  0  0  0  0  0  0  0  0  0  0
    0.2409    0.0121    1.2393 C   0  0  0  0  0  0  0  0  0  0  0  0
    3.3895    0.2087   -1.1030 C   0  0  0  0  0  0  0  0  0  0  0  0
    0.3677   -1.5486   -1.9751 C   0  0  0  0  0  0  0  0  0  0  0  0
   -0.9320    0.6853    1.1882 O   0  0  0  0  0  0  0  0  0  0  0  0
    0.5933   -0.5931    2.2428 O   0  0  0  0  0  0  0  0  0  0  0  0
    3.0246    1.3165   -2.0918 C   0  0  0  0  0  0  0  0  0  0  0  0
    4.8465    0.3893   -0.6646 C   0  0  0  0  0  0  0  0  0  0  0  0
    0.0439   -2.9703   -2.3419 C   0  0  0  0  0  0  0  0  0  0  0  0
    0.3137   -0.6384   -2.7945 O   0  0  0  0  0  0  0  0  0  0  0  0
    0.5990    0.7426   -0.7608 H   0  0  0  0  0  0  0  0  0  0  0  0
    2.6097    1.1343    0.6872 H   0  0  0  0  0  0  0  0  0  0  0  0
    2.8561   -0.5966    0.8213 H   0  0  0  0  0  0  0  0  0  0  0  0
    0.7210   -2.1492   -0.0218 H   0  0  0  0  0  0  0  0  0  0  0  0
    3.3126   -0.7569   -1.6183 H   0  0  0  0  0  0  0  0  0  0  0  0
   -1.1650    1.0116    0.2971 H   0  0  0  0  0  0  0  0  0  0  0  0
    2.9883    2.2941   -1.6001 H   0  0  0  0  0  0  0  0  0  0  0  0
    3.7622    1.3720   -2.9002 H   0  0  0  0  0  0  0  0  0  0  0  0
    2.0540    1.1394   -2.5586 H   0  0  0  0  0  0  0  0  0  0  0  0
    5.1482   -0.4031    0.0282 H   0  0  0  0  0  0  0  0  0  0  0  0
    5.5212    0.3538   -1.5265 H   0  0  0  0  0  0  0  0  0  0  0  0
    4.9904    1.3521   -0.1620 H   0  0  0  0  0  0  0  0  0  0  0  0
   -0.9035   -2.9829   -2.8886 H   0  0  0  0  0  0  0  0  0  0  0  0
    0.8401   -3.3731   -2.9730 H   0  0  0  0  0  0  0  0  0  0  0  0
   -0.0649   -3.6017   -1.4560 H   0  0  0  0  0  0  0  0  0  0  0  0
  1  4  1  0  0  0  0
  1 13  1  6  0  0  0
  1  3  1  0  0  0  0
  1  2  1  0  0  0  0
  2  5  1  0  0  0  0
  2 14  1  0  0  0  0
  2 15  1  0  0  0  0
  3  6  1  0  0  0  0
  3 16  1  0  0  0  0
  4  7  1  0  0  0  0
  4  8  2  0  0  0  0
  5  9  1  0  0  0  0
  5 10  1  0  0  0  0
  5 17  1  0  0  0  0
  6 11  1  0  0  0  0
  6 12  2  0  0  0  0
  7 18  1  0  0  0  0
  9 19  1  0  0  0  0
  9 20  1  0  0  0  0
  9 21  1  0  0  0  0
 10 22  1  0  0  0  0
 10 23  1  0  0  0  0
 10 24  1  0  0  0  0
 11 25  1  0  0  0  0
 11 26  1  0  0  0  0
 11 27  1  0  0  0  0
M  END
>  <Mol_ID>
1493

>  <Formula>
C8H15NO3

>  <MolWeight>
173.2096

>  <Cat>
S4514

>  <Name>
Acetylleucine

>  <Synonyms>
N-acetyl-L-leucine

>  <Target>
Others

>  <Form>
free base

>  <CAS>
99-15-0

>  <URL>
http://selleckchem.com/products/acetylleucine.html

$$$$
