ACHES-N-PAIN (ibuprofen).cdx
 OpenBabel08302520393D

 33 33  0  0  0  0  0  0  0  0999 V2000
    1.3859   -0.2720    0.0264 C   0  0  0  0  0  0  0  0  0  0  0  0
    0.4800   -1.3271   -0.1205 C   0  0  0  0  0  0  0  0  0  0  0  0
   -0.8834   -1.0384   -0.2490 C   0  0  0  0  0  0  0  0  0  0  0  0
   -1.3389    0.2764   -0.1646 C   0  0  0  0  0  0  0  0  0  0  0  0
   -0.4384    1.3313    0.0468 C   0  0  0  0  0  0  0  0  0  0  0  0
    0.9328    1.0434    0.1173 C   0  0  0  0  0  0  0  0  0  0  0  0
    0.9577   -2.7584   -0.1187 C   0  0  0  0  0  0  0  0  0  0  0  0
    1.6558   -3.1890    1.1898 C   0  0  0  0  0  0  0  0  0  0  0  0
    0.7517   -3.0376    2.4176 C   0  0  0  0  0  0  0  0  0  0  0  0
    2.1202   -4.6412    1.0652 C   0  0  0  0  0  0  0  0  0  0  0  0
   -0.9836    2.7215    0.3366 C   0  0  3  0  0  0  0  0  0  0  0  0
   -1.1464    3.0265    1.8287 C   0  0  0  0  0  0  0  0  0  0  0  0
   -0.1679    3.8284   -0.3376 C   0  0  0  0  0  0  0  0  0  0  0  0
   -0.8958    2.0179    2.6920 O   0  0  0  0  0  0  0  0  0  0  0  0
   -1.5124    4.1242    2.2394 O   0  0  0  0  0  0  0  0  0  0  0  0
    2.4536   -0.4704    0.1017 H   0  0  0  0  0  0  0  0  0  0  0  0
   -1.6059   -1.8402   -0.3901 H   0  0  0  0  0  0  0  0  0  0  0  0
   -2.4099    0.4651   -0.2301 H   0  0  0  0  0  0  0  0  0  0  0  0
    1.6673    1.8282    0.2836 H   0  0  0  0  0  0  0  0  0  0  0  0
    0.1118   -3.4299   -0.3160 H   0  0  0  0  0  0  0  0  0  0  0  0
    1.6460   -2.8848   -0.9648 H   0  0  0  0  0  0  0  0  0  0  0  0
    2.5463   -2.5688    1.3512 H   0  0  0  0  0  0  0  0  0  0  0  0
   -0.2176   -3.5228    2.2636 H   0  0  0  0  0  0  0  0  0  0  0  0
    1.2176   -3.4864    3.3020 H   0  0  0  0  0  0  0  0  0  0  0  0
    0.5726   -1.9825    2.6490 H   0  0  0  0  0  0  0  0  0  0  0  0
    2.8198   -4.7530    0.2303 H   0  0  0  0  0  0  0  0  0  0  0  0
    2.6331   -4.9664    1.9764 H   0  0  0  0  0  0  0  0  0  0  0  0
    1.2736   -5.3145    0.8936 H   0  0  0  0  0  0  0  0  0  0  0  0
   -1.9981    2.7707   -0.0832 H   0  0  0  0  0  0  0  0  0  0  0  0
   -0.0985    3.6601   -1.4182 H   0  0  0  0  0  0  0  0  0  0  0  0
   -0.6324    4.8086   -0.1807 H   0  0  0  0  0  0  0  0  0  0  0  0
    0.8488    3.8950    0.0630 H   0  0  0  0  0  0  0  0  0  0  0  0
   -0.6178    1.1726    2.2874 H   0  0  0  0  0  0  0  0  0  0  0  0
  1  2  2  0  0  0  0
  1 16  1  0  0  0  0
  2  3  1  0  0  0  0
  2  7  1  0  0  0  0
  3  4  2  0  0  0  0
  3 17  1  0  0  0  0
  4  5  1  0  0  0  0
  4 18  1  0  0  0  0
  5  6  2  0  0  0  0
  5 11  1  0  0  0  0
  6  1  1  0  0  0  0
  6 19  1  0  0  0  0
  7  8  1  0  0  0  0
  7 20  1  0  0  0  0
  7 21  1  0  0  0  0
  8  9  1  0  0  0  0
  8 10  1  0  0  0  0
  8 22  1  0  0  0  0
  9 23  1  0  0  0  0
  9 24  1  0  0  0  0
  9 25  1  0  0  0  0
 10 26  1  0  0  0  0
 10 27  1  0  0  0  0
 10 28  1  0  0  0  0
 11 12  1  0  0  0  0
 11 13  1  0  0  0  0
 11 29  1  0  0  0  0
 12 14  1  0  0  0  0
 12 15  2  0  0  0  0
 13 30  1  0  0  0  0
 13 31  1  0  0  0  0
 13 32  1  0  0  0  0
 14 33  1  0  0  0  0
M  END
>  <Mol_ID>
363

>  <Formula>
C13H18O2

>  <MolWeight>
206.28082

>  <Cat>
S1638

>  <Name>
Ibuprofen (NSC 256857)

>  <Synonyms>
Dolgesic,NSC 256857

>  <Target>
COX

>  <Form>
free base

>  <CAS>
15687-27-1

>  <URL>
http://selleckchem.com/products/Ibuprofen(Advil).html

$$$$
