ACTIGALL (ursodiol).cdx
 OpenBabel08302520393D

 68 71  0  0  0  0  0  0  0  0999 V2000
    4.0789   -0.0545   -2.3551 C   0  0  0  0  0  0  0  0  0  0  0  0
    5.0570   -0.8567   -1.5225 C   0  0  2  0  0  0  0  0  0  0  0  0
    5.0435   -0.3525   -0.0823 C   0  0  0  0  0  0  0  0  0  0  0  0
    3.6268   -0.0294    0.4605 C   0  0  2  0  0  0  0  0  0  0  0  0
    2.4514   -0.6248   -0.3806 C   0  0  2  0  0  0  0  0  0  0  0  0
    2.6382   -0.2633   -1.8948 C   0  0  0  0  0  0  0  0  0  0  0  0
    3.5214    1.4845    0.7183 C   0  0  0  0  0  0  0  0  0  0  0  0
    2.0981    2.0323    0.7727 C   0  0  1  0  0  0  0  0  0  0  0  0
    1.1204    0.9329    1.2508 C   0  0  3  0  0  0  0  0  0  0  0  0
    1.0324   -0.0700    0.0680 C   0  0  3  0  0  0  0  0  0  0  0  0
   -0.2635    1.3116    1.8760 C   0  0  3  0  0  0  0  0  0  0  0  0
   -1.5312    0.8282    1.0937 C   0  0  3  0  0  0  0  0  0  0  0  0
   -1.4299   -0.4924    0.2951 C   0  0  0  0  0  0  0  0  0  0  0  0
   -0.0551   -1.1206    0.2944 C   0  0  0  0  0  0  0  0  0  0  0  0
   -0.5802    2.8101    2.0461 C   0  0  0  0  0  0  0  0  0  0  0  0
   -0.9919    3.2511    0.6572 C   0  0  0  0  0  0  0  0  0  0  0  0
   -1.6932    2.0144    0.0761 C   0  0  3  0  0  0  0  0  0  0  0  0
    2.4770   -2.1718   -0.1933 C   0  0  0  0  0  0  0  0  0  0  0  0
    2.1525    3.1897    1.5842 O   0  0  0  0  0  0  0  0  0  0  0  0
   -2.6453    0.5776    2.1340 C   0  0  0  0  0  0  0  0  0  0  0  0
   -3.0468    2.2510   -0.6218 C   0  0  3  0  0  0  0  0  0  0  0  0
    6.3690   -0.7434   -2.0552 O   0  0  0  0  0  0  0  0  0  0  0  0
   -4.0178    3.0996    0.2100 C   0  0  0  0  0  0  0  0  0  0  0  0
   -2.8062    2.8847   -2.0237 C   0  0  0  0  0  0  0  0  0  0  0  0
   -2.1650    1.9107   -3.0190 C   0  0  0  0  0  0  0  0  0  0  0  0
   -1.8577    2.5708   -4.3409 C   0  0  0  0  0  0  0  0  0  0  0  0
   -2.8537    2.4572   -5.2330 O   0  0  0  0  0  0  0  0  0  0  0  0
   -0.8073    3.1595   -4.5822 O   0  0  0  0  0  0  0  0  0  0  0  0
    4.3342    1.0109   -2.2823 H   0  0  0  0  0  0  0  0  0  0  0  0
    4.1736   -0.2943   -3.4202 H   0  0  0  0  0  0  0  0  0  0  0  0
    4.8067   -1.9181   -1.5681 H   0  0  0  0  0  0  0  0  0  0  0  0
    5.6952    0.5276   -0.0012 H   0  0  0  0  0  0  0  0  0  0  0  0
    5.5232   -1.1000    0.5608 H   0  0  0  0  0  0  0  0  0  0  0  0
    3.5747   -0.4981    1.4555 H   0  0  0  0  0  0  0  0  0  0  0  0
    2.1710   -1.0389   -2.5123 H   0  0  0  0  0  0  0  0  0  0  0  0
    2.1102    0.6654   -2.1496 H   0  0  0  0  0  0  0  0  0  0  0  0
    4.0814    2.0689   -0.0216 H   0  0  0  0  0  0  0  0  0  0  0  0
    4.0227    1.6942    1.6752 H   0  0  0  0  0  0  0  0  0  0  0  0
    1.8080    2.3562   -0.2351 H   0  0  0  0  0  0  0  0  0  0  0  0
    1.6199    0.4162    2.0843 H   0  0  0  0  0  0  0  0  0  0  0  0
    0.6574    0.5128   -0.7826 H   0  0  0  0  0  0  0  0  0  0  0  0
   -0.2672    0.8675    2.8809 H   0  0  0  0  0  0  0  0  0  0  0  0
   -2.1466   -1.2477    0.6476 H   0  0  0  0  0  0  0  0  0  0  0  0
   -1.7316   -0.3280   -0.7496 H   0  0  0  0  0  0  0  0  0  0  0  0
    0.1035   -1.6549    1.2362 H   0  0  0  0  0  0  0  0  0  0  0  0
   -0.0624   -1.8565   -0.5161 H   0  0  0  0  0  0  0  0  0  0  0  0
    0.2005    3.4182    2.4938 H   0  0  0  0  0  0  0  0  0  0  0  0
   -1.4372    2.9518    2.7126 H   0  0  0  0  0  0  0  0  0  0  0  0
   -1.5745    4.1718    0.6716 H   0  0  0  0  0  0  0  0  0  0  0  0
   -0.1129    3.4838    0.0479 H   0  0  0  0  0  0  0  0  0  0  0  0
   -1.0118    1.7408   -0.7326 H   0  0  0  0  0  0  0  0  0  0  0  0
    2.1628   -2.4448    0.8210 H   0  0  0  0  0  0  0  0  0  0  0  0
    1.8239   -2.6793   -0.9091 H   0  0  0  0  0  0  0  0  0  0  0  0
    3.4647   -2.6183   -0.3100 H   0  0  0  0  0  0  0  0  0  0  0  0
    2.3966    3.9342    1.0058 H   0  0  0  0  0  0  0  0  0  0  0  0
   -2.7922    1.3941    2.8450 H   0  0  0  0  0  0  0  0  0  0  0  0
   -2.3661   -0.2980    2.7438 H   0  0  0  0  0  0  0  0  0  0  0  0
   -3.6067    0.3430    1.6707 H   0  0  0  0  0  0  0  0  0  0  0  0
   -3.5372    1.2854   -0.7940 H   0  0  0  0  0  0  0  0  0  0  0  0
    6.3999   -1.3151   -2.8431 H   0  0  0  0  0  0  0  0  0  0  0  0
   -3.5599    3.9918    0.6417 H   0  0  0  0  0  0  0  0  0  0  0  0
   -4.4270    2.5138    1.0366 H   0  0  0  0  0  0  0  0  0  0  0  0
   -4.8599    3.4450   -0.3974 H   0  0  0  0  0  0  0  0  0  0  0  0
   -3.7609    3.2172   -2.4481 H   0  0  0  0  0  0  0  0  0  0  0  0
   -2.1850    3.7847   -1.9297 H   0  0  0  0  0  0  0  0  0  0  0  0
   -1.2006    1.5019   -2.6679 H   0  0  0  0  0  0  0  0  0  0  0  0
   -2.7993    1.0333   -3.1781 H   0  0  0  0  0  0  0  0  0  0  0  0
   -3.6346    1.9649   -4.9118 H   0  0  0  0  0  0  0  0  0  0  0  0
  1  2  1  0  0  0  0
  1 29  1  0  0  0  0
  1 30  1  0  0  0  0
  2  3  1  0  0  0  0
  2 31  1  6  0  0  0
  2 22  1  0  0  0  0
  3 32  1  0  0  0  0
  3 33  1  0  0  0  0
  4  3  1  0  0  0  0
  4  5  1  0  0  0  0
  4  7  1  0  0  0  0
  4 34  1  1  0  0  0
  5  6  1  0  0  0  0
  5 18  1  1  0  0  0
  6  1  1  0  0  0  0
  6 35  1  0  0  0  0
  6 36  1  0  0  0  0
  7  8  1  0  0  0  0
  7 37  1  0  0  0  0
  7 38  1  0  0  0  0
  8 19  1  0  0  0  0
  8 39  1  6  0  0  0
  9  8  1  0  0  0  0
  9 10  1  0  0  0  0
  9 11  1  0  0  0  0
  9 40  1  0  0  0  0
 10  5  1  0  0  0  0
 10 14  1  0  0  0  0
 10 41  1  0  0  0  0
 11 12  1  0  0  0  0
 11 15  1  0  0  0  0
 11 42  1  0  0  0  0
 12 13  1  0  0  0  0
 12 20  1  0  0  0  0
 13 14  1  0  0  0  0
 13 43  1  0  0  0  0
 13 44  1  0  0  0  0
 14 45  1  0  0  0  0
 14 46  1  0  0  0  0
 15 16  1  0  0  0  0
 15 47  1  0  0  0  0
 15 48  1  0  0  0  0
 16 49  1  0  0  0  0
 16 50  1  0  0  0  0
 17 16  1  0  0  0  0
 17 12  1  0  0  0  0
 17 21  1  0  0  0  0
 17 51  1  0  0  0  0
 18 52  1  0  0  0  0
 18 53  1  0  0  0  0
 18 54  1  0  0  0  0
 19 55  1  0  0  0  0
 20 56  1  0  0  0  0
 20 57  1  0  0  0  0
 20 58  1  0  0  0  0
 21 23  1  0  0  0  0
 21 24  1  0  0  0  0
 21 59  1  0  0  0  0
 22 60  1  0  0  0  0
 23 61  1  0  0  0  0
 23 62  1  0  0  0  0
 23 63  1  0  0  0  0
 24 25  1  0  0  0  0
 24 64  1  0  0  0  0
 24 65  1  0  0  0  0
 25 26  1  0  0  0  0
 25 66  1  0  0  0  0
 25 67  1  0  0  0  0
 26 27  1  0  0  0  0
 26 28  2  0  0  0  0
 27 68  1  0  0  0  0
M  END
>  <Mol_ID>
366

>  <Formula>
C24H40O4

>  <MolWeight>
392.572

>  <Cat>
S1643

>  <Name>
Ursodiol

>  <Synonyms>
Ursodeoxycholic acid, UDCA

>  <Target>
FXR

>  <Form>
free base

>  <CAS>
128-13-2

>  <URL>
http://selleckchem.com/products/Ursodiol(Actigal).html

$$$$
