ACY-738.cdx
 OpenBabel08302520433D

 34 36  0  0  0  0  0  0  0  0999 V2000
    0.8729   -1.4833    1.4059 C   0  0  0  0  0  0  0  0  0  0  0  0
    0.2689   -0.4251    2.0784 C   0  0  0  0  0  0  0  0  0  0  0  0
   -0.8064    0.2513    1.4946 C   0  0  0  0  0  0  0  0  0  0  0  0
   -1.3168   -0.1276    0.2386 C   0  0  0  0  0  0  0  0  0  0  0  0
   -0.6424   -1.1543   -0.4443 C   0  0  0  0  0  0  0  0  0  0  0  0
    0.4316   -1.8351    0.1339 C   0  0  0  0  0  0  0  0  0  0  0  0
   -2.6245    0.4524   -0.2964 C   0  0  0  0  0  0  0  0  0  0  0  0
   -2.5490    1.7421   -0.9949 N   0  0  0  0  0  0  0  0  0  0  0  0
   -2.2631    1.8282   -2.3586 C   0  0  0  0  0  0  0  0  0  0  0  0
   -2.7386    2.9153   -2.9960 N   0  0  0  0  0  0  0  0  0  0  0  0
   -2.4177    3.0697   -4.3004 C   0  0  0  0  0  0  0  0  0  0  0  0
   -1.5607    2.2311   -4.9666 C   0  0  0  0  0  0  0  0  0  0  0  0
   -1.1369    1.1400   -4.2435 C   0  0  0  0  0  0  0  0  0  0  0  0
   -1.4924    0.9095   -2.9595 N   0  0  0  0  0  0  0  0  0  0  0  0
   -1.1223    2.5372   -6.3335 C   0  0  0  0  0  0  0  0  0  0  0  0
    0.1295    2.0922   -6.6933 N   0  0  0  0  0  0  0  0  0  0  0  0
   -1.8139    3.2223   -7.0834 O   0  0  0  0  0  0  0  0  0  0  0  0
    0.6171    2.5993   -7.9208 O   0  0  0  0  0  0  0  0  0  0  0  0
   -3.8379    0.2573    0.6118 C   0  0  0  0  0  0  0  0  0  0  0  0
   -3.7422   -0.5101   -0.6640 C   0  0  0  0  0  0  0  0  0  0  0  0
    1.6808   -2.0384    1.8748 H   0  0  0  0  0  0  0  0  0  0  0  0
    0.6120   -0.1451    3.0711 H   0  0  0  0  0  0  0  0  0  0  0  0
   -1.2917    1.0502    2.0511 H   0  0  0  0  0  0  0  0  0  0  0  0
   -0.9955   -1.4561   -1.4287 H   0  0  0  0  0  0  0  0  0  0  0  0
    0.9003   -2.6575   -0.3991 H   0  0  0  0  0  0  0  0  0  0  0  0
   -2.0499    2.4941   -0.5380 H   0  0  0  0  0  0  0  0  0  0  0  0
   -2.8665    3.9335   -4.7873 H   0  0  0  0  0  0  0  0  0  0  0  0
   -0.4842    0.3850   -4.6673 H   0  0  0  0  0  0  0  0  0  0  0  0
    0.8471    1.8381   -6.0248 H   0  0  0  0  0  0  0  0  0  0  0  0
   -0.1360    3.1450   -8.2424 H   0  0  0  0  0  0  0  0  0  0  0  0
   -3.7166   -0.2933    1.5385 H   0  0  0  0  0  0  0  0  0  0  0  0
   -4.5634    1.0597    0.6716 H   0  0  0  0  0  0  0  0  0  0  0  0
   -4.4093   -0.2337   -1.4718 H   0  0  0  0  0  0  0  0  0  0  0  0
   -3.5516   -1.5758   -0.6017 H   0  0  0  0  0  0  0  0  0  0  0  0
  1  2  2  0  0  0  0
  1 21  1  0  0  0  0
  2  3  1  0  0  0  0
  2 22  1  0  0  0  0
  3  4  2  0  0  0  0
  3 23  1  0  0  0  0
  4  5  1  0  0  0  0
  4  7  1  0  0  0  0
  5  6  2  0  0  0  0
  5 24  1  0  0  0  0
  6  1  1  0  0  0  0
  6 25  1  0  0  0  0
  7  8  1  0  0  0  0
  7 19  1  0  0  0  0
  8  9  1  0  0  0  0
  8 26  1  0  0  0  0
  9 10  2  0  0  0  0
 10 11  1  0  0  0  0
 11 12  2  0  0  0  0
 11 27  1  0  0  0  0
 12 13  1  0  0  0  0
 12 15  1  0  0  0  0
 13 14  2  0  0  0  0
 13 28  1  0  0  0  0
 14  9  1  0  0  0  0
 15 16  1  0  0  0  0
 15 17  2  0  0  0  0
 16 18  1  0  0  0  0
 16 29  1  0  0  0  0
 18 30  1  0  0  0  0
 19 20  1  0  0  0  0
 19 31  1  0  0  0  0
 19 32  1  0  0  0  0
 20  7  1  0  0  0  0
 20 33  1  0  0  0  0
 20 34  1  0  0  0  0
M  END
>  <Mol_ID>
4175

>  <Formula>
C14H14N4O2

>  <MolWeight>
270.28656

>  <Cat>
S8648

>  <Name>
ACY-738

>  <Synonyms>
N/A

>  <Target>
HDAC

>  <Form>
free base

>  <CAS>
1375465-91-0

>  <URL>
http://selleckchem.com/products/acy-738.html

$$$$
