ACY-1215.cdx
 OpenBabel08302519553D

 59 61  0  0  0  0  0  0  0  0999 V2000
    1.8993    1.1689    2.7618 C   0  0  0  0  0  0  0  0  0  0  0  0
    1.7015    1.9224    3.9148 C   0  0  0  0  0  0  0  0  0  0  0  0
    0.6232    2.7963    3.9876 C   0  0  0  0  0  0  0  0  0  0  0  0
   -0.2451    2.9394    2.8983 C   0  0  0  0  0  0  0  0  0  0  0  0
   -0.0513    2.2116    1.7067 C   0  0  0  0  0  0  0  0  0  0  0  0
    1.0239    1.3018    1.6780 C   0  0  0  0  0  0  0  0  0  0  0  0
   -0.9003    2.4149    0.5540 N   0  0  0  0  0  0  0  0  0  0  0  0
   -0.3868    2.3252   -0.7996 C   0  0  0  0  0  0  0  0  0  0  0  0
   -2.2971    2.7148    0.7342 C   0  0  0  0  0  0  0  0  0  0  0  0
   -1.2078    1.8872   -1.8608 C   0  0  0  0  0  0  0  0  0  0  0  0
   -0.7386    1.8223   -3.1754 C   0  0  0  0  0  0  0  0  0  0  0  0
    0.5776    2.1609   -3.4582 C   0  0  0  0  0  0  0  0  0  0  0  0
    1.4175    2.5805   -2.4310 C   0  0  0  0  0  0  0  0  0  0  0  0
    0.9372    2.6766   -1.1192 C   0  0  0  0  0  0  0  0  0  0  0  0
   -2.9093    3.5305   -0.1597 N   0  0  0  0  0  0  0  0  0  0  0  0
   -4.2439    3.7020   -0.0728 C   0  0  0  0  0  0  0  0  0  0  0  0
   -5.0167    3.1173    0.8953 C   0  0  0  0  0  0  0  0  0  0  0  0
   -4.3319    2.3162    1.7767 C   0  0  0  0  0  0  0  0  0  0  0  0
   -2.9908    2.1229    1.7321 N   0  0  0  0  0  0  0  0  0  0  0  0
   -6.4749    3.2803    0.9832 C   0  0  0  0  0  0  0  0  0  0  0  0
   -7.1558    2.3666    1.4319 O   0  0  0  0  0  0  0  0  0  0  0  0
   -6.9832    4.4905    0.5590 N   0  0  0  0  0  0  0  0  0  0  0  0
   -8.4024    4.7924    0.5968 C   0  0  0  0  0  0  0  0  0  0  0  0
   -8.9439    5.0892   -0.8015 C   0  0  0  0  0  0  0  0  0  0  0  0
   -8.8891    3.8515   -1.6973 C   0  0  0  0  0  0  0  0  0  0  0  0
   -9.4314    4.1278   -3.1005 C   0  0  0  0  0  0  0  0  0  0  0  0
   -9.3165    2.9122   -4.0225 C   0  0  0  0  0  0  0  0  0  0  0  0
  -10.1279    1.7068   -3.5452 C   0  0  0  0  0  0  0  0  0  0  0  0
   -9.9582    0.5079   -4.4457 C   0  0  0  0  0  0  0  0  0  0  0  0
  -10.7115   -0.5776   -4.0608 N   0  0  0  0  0  0  0  0  0  0  0  0
  -10.6265   -1.7026   -4.9153 O   0  0  0  0  0  0  0  0  0  0  0  0
   -9.2004    0.4605   -5.4123 O   0  0  0  0  0  0  0  0  0  0  0  0
    2.7357    0.4772    2.6995 H   0  0  0  0  0  0  0  0  0  0  0  0
    2.3851    1.8241    4.7542 H   0  0  0  0  0  0  0  0  0  0  0  0
    0.4544    3.3774    4.8914 H   0  0  0  0  0  0  0  0  0  0  0  0
   -1.0648    3.6461    2.9852 H   0  0  0  0  0  0  0  0  0  0  0  0
    1.1936    0.6822    0.8008 H   0  0  0  0  0  0  0  0  0  0  0  0
   -2.2369    1.5900   -1.6786 H   0  0  0  0  0  0  0  0  0  0  0  0
   -1.4090    1.5066   -3.9704 H   0  0  0  0  0  0  0  0  0  0  0  0
    0.9479    2.1013   -4.4780 H   0  0  0  0  0  0  0  0  0  0  0  0
    2.4503    2.8432   -2.6483 H   0  0  0  0  0  0  0  0  0  0  0  0
    1.6126    3.0454   -0.3512 H   0  0  0  0  0  0  0  0  0  0  0  0
   -4.6650    4.3161   -0.8624 H   0  0  0  0  0  0  0  0  0  0  0  0
   -4.8476    1.7816    2.5705 H   0  0  0  0  0  0  0  0  0  0  0  0
   -6.3619    5.2496    0.3125 H   0  0  0  0  0  0  0  0  0  0  0  0
   -8.9607    3.9694    1.0577 H   0  0  0  0  0  0  0  0  0  0  0  0
   -8.5189    5.6744    1.2328 H   0  0  0  0  0  0  0  0  0  0  0  0
   -9.9825    5.4298   -0.7141 H   0  0  0  0  0  0  0  0  0  0  0  0
   -8.3708    5.9053   -1.2586 H   0  0  0  0  0  0  0  0  0  0  0  0
   -7.8575    3.4913   -1.7807 H   0  0  0  0  0  0  0  0  0  0  0  0
   -9.4721    3.0584   -1.2165 H   0  0  0  0  0  0  0  0  0  0  0  0
  -10.4755    4.4551   -3.0425 H   0  0  0  0  0  0  0  0  0  0  0  0
   -8.8630    4.9533   -3.5482 H   0  0  0  0  0  0  0  0  0  0  0  0
   -9.6555    3.1978   -5.0261 H   0  0  0  0  0  0  0  0  0  0  0  0
   -8.2616    2.6288   -4.1225 H   0  0  0  0  0  0  0  0  0  0  0  0
   -9.8092    1.3968   -2.5446 H   0  0  0  0  0  0  0  0  0  0  0  0
  -11.1915    1.9687   -3.4990 H   0  0  0  0  0  0  0  0  0  0  0  0
  -11.5634   -0.4886   -3.5165 H   0  0  0  0  0  0  0  0  0  0  0  0
   -9.9255   -1.4292   -5.5485 H   0  0  0  0  0  0  0  0  0  0  0  0
  1  2  2  0  0  0  0
  1 33  1  0  0  0  0
  2  3  1  0  0  0  0
  2 34  1  0  0  0  0
  3  4  2  0  0  0  0
  3 35  1  0  0  0  0
  4  5  1  0  0  0  0
  4 36  1  0  0  0  0
  5  6  2  0  0  0  0
  5  7  1  0  0  0  0
  6  1  1  0  0  0  0
  6 37  1  0  0  0  0
  7  8  1  0  0  0  0
  7  9  1  0  0  0  0
  8 10  2  0  0  0  0
  9 15  2  0  0  0  0
 10 11  1  0  0  0  0
 10 38  1  0  0  0  0
 11 12  2  0  0  0  0
 11 39  1  0  0  0  0
 12 13  1  0  0  0  0
 12 40  1  0  0  0  0
 13 14  2  0  0  0  0
 13 41  1  0  0  0  0
 14  8  1  0  0  0  0
 14 42  1  0  0  0  0
 15 16  1  0  0  0  0
 16 17  2  0  0  0  0
 16 43  1  0  0  0  0
 17 18  1  0  0  0  0
 17 20  1  0  0  0  0
 18 19  2  0  0  0  0
 18 44  1  0  0  0  0
 19  9  1  0  0  0  0
 20 21  2  0  0  0  0
 20 22  1  0  0  0  0
 22 23  1  0  0  0  0
 22 45  1  0  0  0  0
 23 24  1  0  0  0  0
 23 46  1  0  0  0  0
 23 47  1  0  0  0  0
 24 25  1  0  0  0  0
 24 48  1  0  0  0  0
 24 49  1  0  0  0  0
 25 26  1  0  0  0  0
 25 50  1  0  0  0  0
 25 51  1  0  0  0  0
 26 27  1  0  0  0  0
 26 52  1  0  0  0  0
 26 53  1  0  0  0  0
 27 28  1  0  0  0  0
 27 54  1  0  0  0  0
 27 55  1  0  0  0  0
 28 29  1  0  0  0  0
 28 56  1  0  0  0  0
 28 57  1  0  0  0  0
 29 30  1  0  0  0  0
 29 32  2  0  0  0  0
 30 31  1  0  0  0  0
 30 58  1  0  0  0  0
 31 59  1  0  0  0  0
M  END
>  <Mol_ID>
2130

>  <Formula>
C24H27N5O3

>  <MolWeight>
433.50288

>  <Cat>
S8001

>  <Name>
Ricolinostat (ACY-1215)

>  <Synonyms>
Rocilinostat

>  <Target>
Apoptosis related,HDAC

>  <Form>
free base

>  <CAS>
1316214-52-4

>  <URL>
http://selleckchem.com/products/rocilinostat-acy-1215.html

$$$$
