Adelmidrol
 OpenBabel08302521223D

 45 44  0  0  0  0  0  0  0  0999 V2000
    1.2108    1.9290   -3.0185 C   0  0  0  0  0  0  0  0  0  0  0  0
    0.5043    2.3323   -1.7393 C   0  0  0  0  0  0  0  0  0  0  0  0
   -0.5629    1.3056   -1.3650 C   0  0  0  0  0  0  0  0  0  0  0  0
   -1.3239    1.6928   -0.0993 C   0  0  0  0  0  0  0  0  0  0  0  0
   -2.3976    0.6485    0.2186 C   0  0  0  0  0  0  0  0  0  0  0  0
   -3.2329    0.9792    1.4580 C   0  0  0  0  0  0  0  0  0  0  0  0
   -3.9974    2.3058    1.4056 C   0  0  0  0  0  0  0  0  0  0  0  0
   -4.9825    2.4008    0.2408 C   0  0  0  0  0  0  0  0  0  0  0  0
   -5.7225    3.7264    0.2209 C   0  0  0  0  0  0  0  0  0  0  0  0
    1.0691    0.8390   -3.5581 O   0  0  0  0  0  0  0  0  0  0  0  0
    2.0245    2.9132   -3.5317 N   0  0  0  0  0  0  0  0  0  0  0  0
   -5.5640    4.6120    1.0536 O   0  0  0  0  0  0  0  0  0  0  0  0
   -6.5727    3.8479   -0.8574 N   0  0  0  0  0  0  0  0  0  0  0  0
   -7.4305    5.0107   -1.0388 C   0  0  0  0  0  0  0  0  0  0  0  0
   -6.6561    6.2960   -1.3408 C   0  0  0  0  0  0  0  0  0  0  0  0
   -5.8360    6.1191   -2.4950 O   0  0  0  0  0  0  0  0  0  0  0  0
    2.7659    2.7120   -4.7682 C   0  0  0  0  0  0  0  0  0  0  0  0
    1.8485    2.6641   -5.9926 C   0  0  0  0  0  0  0  0  0  0  0  0
    1.0637    3.8546   -6.0610 O   0  0  0  0  0  0  0  0  0  0  0  0
    1.2525    2.4133   -0.9430 H   0  0  0  0  0  0  0  0  0  0  0  0
    0.0441    3.3167   -1.8843 H   0  0  0  0  0  0  0  0  0  0  0  0
   -1.2719    1.2053   -2.1973 H   0  0  0  0  0  0  0  0  0  0  0  0
   -0.0972    0.3218   -1.2283 H   0  0  0  0  0  0  0  0  0  0  0  0
   -0.6282    1.7760    0.7443 H   0  0  0  0  0  0  0  0  0  0  0  0
   -1.7793    2.6777   -0.2469 H   0  0  0  0  0  0  0  0  0  0  0  0
   -3.0557    0.5142   -0.6477 H   0  0  0  0  0  0  0  0  0  0  0  0
   -1.9116   -0.3221    0.3823 H   0  0  0  0  0  0  0  0  0  0  0  0
   -3.9484    0.1633    1.6198 H   0  0  0  0  0  0  0  0  0  0  0  0
   -2.5750    0.9909    2.3358 H   0  0  0  0  0  0  0  0  0  0  0  0
   -4.5456    2.4226    2.3492 H   0  0  0  0  0  0  0  0  0  0  0  0
   -3.2908    3.1431    1.3676 H   0  0  0  0  0  0  0  0  0  0  0  0
   -4.4554    2.3075   -0.7148 H   0  0  0  0  0  0  0  0  0  0  0  0
   -5.7202    1.5934    0.3092 H   0  0  0  0  0  0  0  0  0  0  0  0
    2.1221    3.7958   -3.0468 H   0  0  0  0  0  0  0  0  0  0  0  0
   -6.7961    3.0152   -1.3889 H   0  0  0  0  0  0  0  0  0  0  0  0
   -8.0869    4.7723   -1.8824 H   0  0  0  0  0  0  0  0  0  0  0  0
   -8.0427    5.1363   -0.1401 H   0  0  0  0  0  0  0  0  0  0  0  0
   -7.3545    7.1128   -1.5461 H   0  0  0  0  0  0  0  0  0  0  0  0
   -6.0161    6.6006   -0.5079 H   0  0  0  0  0  0  0  0  0  0  0  0
   -5.1904    5.4323   -2.2495 H   0  0  0  0  0  0  0  0  0  0  0  0
    3.4606    3.5542   -4.8524 H   0  0  0  0  0  0  0  0  0  0  0  0
    3.3409    1.7843   -4.6888 H   0  0  0  0  0  0  0  0  0  0  0  0
    2.4426    2.5943   -6.9083 H   0  0  0  0  0  0  0  0  0  0  0  0
    1.1681    1.8074   -5.9637 H   0  0  0  0  0  0  0  0  0  0  0  0
    0.4972    3.8366   -5.2686 H   0  0  0  0  0  0  0  0  0  0  0  0
  1  2  1  0  0  0  0
  1 10  2  0  0  0  0
  1 11  1  0  0  0  0
  2  3  1  0  0  0  0
  2 20  1  0  0  0  0
  2 21  1  0  0  0  0
  3  4  1  0  0  0  0
  3 22  1  0  0  0  0
  3 23  1  0  0  0  0
  4  5  1  0  0  0  0
  4 24  1  0  0  0  0
  4 25  1  0  0  0  0
  5  6  1  0  0  0  0
  5 26  1  0  0  0  0
  5 27  1  0  0  0  0
  6  7  1  0  0  0  0
  6 28  1  0  0  0  0
  6 29  1  0  0  0  0
  7  8  1  0  0  0  0
  7 30  1  0  0  0  0
  7 31  1  0  0  0  0
  8  9  1  0  0  0  0
  8 32  1  0  0  0  0
  8 33  1  0  0  0  0
  9 12  2  0  0  0  0
  9 13  1  0  0  0  0
 11 17  1  0  0  0  0
 11 34  1  0  0  0  0
 13 14  1  0  0  0  0
 13 35  1  0  0  0  0
 14 15  1  0  0  0  0
 14 36  1  0  0  0  0
 14 37  1  0  0  0  0
 15 16  1  0  0  0  0
 15 38  1  0  0  0  0
 15 39  1  0  0  0  0
 16 40  1  0  0  0  0
 17 18  1  0  0  0  0
 17 41  1  0  0  0  0
 17 42  1  0  0  0  0
 18 19  1  0  0  0  0
 18 43  1  0  0  0  0
 18 44  1  0  0  0  0
 19 45  1  0  0  0  0
M  END
>  <Mol_ID>
4721

>  <Formula>
C13H26N2O4

>  <MolWeight>
274.35654

>  <Cat>
S6551

>  <Name>
Adelmidrol

>  <Synonyms>
N/A

>  <Target>
Immunology & Inflammation related

>  <Form>
Free Base

>  <CAS>
1675-66-7

>  <URL>
http://www.selleck.cn/products/adelmidrol.html

$$$$
