Adenine hydrochloride.cdx
 OpenBabel08302521443D

 15 16  0  0  0  0  0  0  0  0999 V2000
    0.6607   -0.7733   -0.0004 C   0  0  0  0  0  0  0  0  0  0  0  0
    0.2095    0.5352    0.0006 C   0  0  0  0  0  0  0  0  0  0  0  0
   -1.1837    0.7169    0.0039 C   0  0  0  0  0  0  0  0  0  0  0  0
   -1.9762   -0.3809    0.0069 N   0  0  0  0  0  0  0  0  0  0  0  0
   -1.3883   -1.5983    0.0073 C   0  0  0  0  0  0  0  0  0  0  0  0
   -0.0720   -1.8957    0.0026 N   0  0  0  0  0  0  0  0  0  0  0  0
    2.0218   -0.6811   -0.0056 N   0  0  0  0  0  0  0  0  0  0  0  0
    2.3453    0.6491   -0.0028 C   0  0  0  0  0  0  0  0  0  0  0  0
    1.2754    1.4159   -0.0011 N   0  0  0  0  0  0  0  0  0  0  0  0
   -1.7837    1.9550    0.0070 N   0  0  0  0  0  0  0  0  0  0  0  0
   -2.0664   -2.4472    0.0127 H   0  0  0  0  0  0  0  0  0  0  0  0
    2.6588   -1.4633   -0.0091 H   0  0  0  0  0  0  0  0  0  0  0  0
    3.3715    0.9934   -0.0022 H   0  0  0  0  0  0  0  0  0  0  0  0
   -1.2059    2.7827   -0.0111 H   0  0  0  0  0  0  0  0  0  0  0  0
   -2.7897    1.9961   -0.0088 H   0  0  0  0  0  0  0  0  0  0  0  0
  1  2  1  0  0  0  0
  1  7  1  0  0  0  0
  2  3  2  0  0  0  0
  3  4  1  0  0  0  0
  3 10  1  0  0  0  0
  4  5  2  0  0  0  0
  5  6  1  0  0  0  0
  5 11  1  0  0  0  0
  6  1  2  0  0  0  0
  7  8  1  0  0  0  0
  7 12  1  0  0  0  0
  8  9  2  0  0  0  0
  8 13  1  0  0  0  0
  9  2  1  0  0  0  0
 10 14  1  0  0  0  0
 10 15  1  0  0  0  0
M  END
>  <Mol_ID>
905

>  <Formula>
C5H6ClN5

>  <MolWeight>
171.58764

>  <Cat>
S1983

>  <Name>
Adenine HCl

>  <Synonyms>
6-Aminopurine hydrochloride

>  <Target>
DNA/RNA Synthesis

>  <Form>
Hydrochloride

>  <CAS>
2922-28-3

>  <URL>
http://selleckchem.com/products/adenine-hydrochloride.html

$$$$
