ADENOSINE (adenosine).cdx
 OpenBabel08302522013D

 65 67  0  0  0  0  0  0  0  0999 V2000
   -5.7724   -0.4794    5.3991 C   0  0  0  0  0  0  0  0  0  0  0  0
   -6.0894    0.3570    4.1472 C   0  0  2  0  0  0  0  0  0  0  0  0
   -6.0188   -0.4384    2.8691 C   0  0  0  0  0  0  0  0  0  0  0  0
   -5.6681   -1.7362    2.7899 C   0  0  0  0  0  0  0  0  0  0  0  0
   -5.3434   -2.5581    4.0335 C   0  0  2  0  0  0  0  0  0  0  0  0
   -4.7610   -1.6133    5.1368 C   0  0  1  0  0  0  0  0  0  0  0  0
   -5.5726   -2.3677    1.4927 C   0  0  0  0  0  0  0  0  0  0  0  0
   -5.2017   -3.6408    1.3252 C   0  0  0  0  0  0  0  0  0  0  0  0
   -4.8689   -4.5763    2.4517 C   0  0  1  0  0  0  0  0  0  0  0  0
   -4.4606   -3.8116    3.7489 C   0  0  2  0  0  0  0  0  0  0  0  0
   -5.1835    1.5906    4.0614 C   0  0  0  0  0  0  0  0  0  0  0  0
   -3.4918   -1.0174    4.7477 O   0  0  0  0  0  0  0  0  0  0  0  0
   -4.3887   -4.7438    4.9893 C   0  0  0  0  0  0  0  0  0  0  0  0
   -6.0307   -5.5663    2.5840 C   0  0  0  0  0  0  0  0  0  0  0  0
   -3.2985   -5.8080    4.8568 C   0  0  0  0  0  0  0  0  0  0  0  0
   -3.0817   -6.6696    6.1064 C   0  0  1  0  0  0  0  0  0  0  0  0
   -2.3327   -1.6057    5.1508 C   0  0  0  0  0  0  0  0  0  0  0  0
   -2.2748   -2.6218    5.8332 O   0  0  0  0  0  0  0  0  0  0  0  0
   -1.1050   -0.7959    4.7260 C   0  0  2  0  0  0  0  0  0  0  0  0
   -1.1540   -0.3986    3.2401 C   0  0  0  0  0  0  0  0  0  0  0  0
    0.0374    0.4433    2.7917 C   0  0  0  0  0  0  0  0  0  0  0  0
   -2.0467   -7.6224    5.7545 O   0  0  0  0  0  0  0  0  0  0  0  0
   -0.9296   -7.8586    6.4521 C   0  0  0  0  0  0  0  0  0  0  0  0
   -0.7640   -7.2300    7.8092 C   0  0  0  0  0  0  0  0  0  0  0  0
   -2.0690   -6.7257    8.3824 C   0  0  1  0  0  0  0  0  0  0  0  0
   -2.7694   -5.8614    7.3583 C   0  0  0  0  0  0  0  0  0  0  0  0
   -0.0471   -8.5937    5.9984 O   0  0  0  0  0  0  0  0  0  0  0  0
   -2.9006   -7.7911    8.8166 O   0  0  0  0  0  0  0  0  0  0  0  0
    0.1675   -1.5854    5.0614 C   0  0  0  0  0  0  0  0  0  0  0  0
   -5.4093    0.1724    6.2031 H   0  0  0  0  0  0  0  0  0  0  0  0
   -6.7067   -0.9298    5.7625 H   0  0  0  0  0  0  0  0  0  0  0  0
   -7.1191    0.7276    4.2417 H   0  0  0  0  0  0  0  0  0  0  0  0
   -6.2691    0.1102    1.9628 H   0  0  0  0  0  0  0  0  0  0  0  0
   -6.3075   -2.9389    4.4049 H   0  0  0  0  0  0  0  0  0  0  0  0
   -4.6403   -2.1419    6.0877 H   0  0  0  0  0  0  0  0  0  0  0  0
   -5.8149   -1.7746    0.6129 H   0  0  0  0  0  0  0  0  0  0  0  0
   -5.1542   -4.0459    0.3162 H   0  0  0  0  0  0  0  0  0  0  0  0
   -3.9890   -5.1509    2.1330 H   0  0  0  0  0  0  0  0  0  0  0  0
   -3.4444   -3.4426    3.5556 H   0  0  0  0  0  0  0  0  0  0  0  0
   -5.2628    2.0854    3.0872 H   0  0  0  0  0  0  0  0  0  0  0  0
   -5.4702    2.3211    4.8261 H   0  0  0  0  0  0  0  0  0  0  0  0
   -4.1303    1.3439    4.2232 H   0  0  0  0  0  0  0  0  0  0  0  0
   -4.1834   -4.1527    5.8846 H   0  0  0  0  0  0  0  0  0  0  0  0
   -5.3605   -5.2140    5.1815 H   0  0  0  0  0  0  0  0  0  0  0  0
   -6.2300   -6.0511    1.6194 H   0  0  0  0  0  0  0  0  0  0  0  0
   -5.8085   -6.3708    3.2900 H   0  0  0  0  0  0  0  0  0  0  0  0
   -6.9542   -5.0717    2.9025 H   0  0  0  0  0  0  0  0  0  0  0  0
   -3.5283   -6.4772    4.0196 H   0  0  0  0  0  0  0  0  0  0  0  0
   -2.3472   -5.3274    4.5886 H   0  0  0  0  0  0  0  0  0  0  0  0
   -3.9855   -7.2647    6.2823 H   0  0  0  0  0  0  0  0  0  0  0  0
   -1.1062    0.1137    5.3400 H   0  0  0  0  0  0  0  0  0  0  0  0
   -1.2228   -1.2932    2.6095 H   0  0  0  0  0  0  0  0  0  0  0  0
   -2.0633    0.1836    3.0497 H   0  0  0  0  0  0  0  0  0  0  0  0
    0.9437   -0.1634    2.6976 H   0  0  0  0  0  0  0  0  0  0  0  0
   -0.1587    0.8859    1.8098 H   0  0  0  0  0  0  0  0  0  0  0  0
    0.2378    1.2578    3.4956 H   0  0  0  0  0  0  0  0  0  0  0  0
   -0.0574   -6.4039    7.6907 H   0  0  0  0  0  0  0  0  0  0  0  0
   -0.3304   -7.9780    8.4791 H   0  0  0  0  0  0  0  0  0  0  0  0
   -1.8536   -6.1255    9.2724 H   0  0  0  0  0  0  0  0  0  0  0  0
   -3.6968   -5.4562    7.7739 H   0  0  0  0  0  0  0  0  0  0  0  0
   -2.1193   -5.0137    7.1107 H   0  0  0  0  0  0  0  0  0  0  0  0
   -2.9842   -8.4613    8.1143 H   0  0  0  0  0  0  0  0  0  0  0  0
    1.0758   -1.0540    4.7631 H   0  0  0  0  0  0  0  0  0  0  0  0
    0.2406   -1.7561    6.1415 H   0  0  0  0  0  0  0  0  0  0  0  0
    0.1685   -2.5658    4.5718 H   0  0  0  0  0  0  0  0  0  0  0  0
  1  2  1  0  0  0  0
  1 30  1  0  0  0  0
  1 31  1  0  0  0  0
  2  3  1  0  0  0  0
  2 11  1  0  0  0  0
  2 32  1  1  0  0  0
  3  4  2  0  0  0  0
  3 33  1  0  0  0  0
  4  7  1  0  0  0  0
  5  4  1  0  0  0  0
  5  6  1  0  0  0  0
  5 34  1  1  0  0  0
  6  1  1  0  0  0  0
  6 12  1  0  0  0  0
  6 35  1  1  0  0  0
  7  8  2  0  0  0  0
  7 36  1  0  0  0  0
  8  9  1  0  0  0  0
  8 37  1  0  0  0  0
  9 10  1  0  0  0  0
  9 14  1  0  0  0  0
  9 38  1  6  0  0  0
 10  5  1  0  0  0  0
 10 39  1  6  0  0  0
 10 13  1  0  0  0  0
 11 40  1  0  0  0  0
 11 41  1  0  0  0  0
 11 42  1  0  0  0  0
 12 17  1  0  0  0  0
 13 15  1  0  0  0  0
 13 43  1  0  0  0  0
 13 44  1  0  0  0  0
 14 45  1  0  0  0  0
 14 46  1  0  0  0  0
 14 47  1  0  0  0  0
 15 48  1  0  0  0  0
 15 49  1  0  0  0  0
 16 22  1  0  0  0  0
 16 15  1  0  0  0  0
 16 50  1  1  0  0  0
 17 18  2  0  0  0  0
 19 29  1  0  0  0  0
 19 51  1  1  0  0  0
 19 20  1  0  0  0  0
 19 17  1  0  0  0  0
 20 21  1  0  0  0  0
 20 52  1  0  0  0  0
 20 53  1  0  0  0  0
 21 54  1  0  0  0  0
 21 55  1  0  0  0  0
 21 56  1  0  0  0  0
 22 23  1  0  0  0  0
 23 24  1  0  0  0  0
 23 27  2  0  0  0  0
 24 25  1  0  0  0  0
 24 57  1  0  0  0  0
 24 58  1  0  0  0  0
 25 26  1  0  0  0  0
 25 28  1  0  0  0  0
 25 59  1  1  0  0  0
 26 16  1  0  0  0  0
 26 60  1  0  0  0  0
 26 61  1  0  0  0  0
 28 62  1  0  0  0  0
 29 63  1  0  0  0  0
 29 64  1  0  0  0  0
 29 65  1  0  0  0  0
M  END
>  <Mol_ID>
1128

>  <Formula>
C24H36O5

>  <MolWeight>
404.53964

>  <Cat>
S2061

>  <Name>
Lovastatin (MK-803)

>  <Synonyms>
Mevinolin,Mevacor

>  <Target>
Autophagy,HMG-CoA Reductase

>  <Form>
free base

>  <CAS>
75330-75-5

>  <URL>
http://selleckchem.com/products/lovastatin-mevacor.html

$$$$
