Adenosine Dialdehyde (ADOX).cdx
 OpenBabel08302520433D

 30 31  0  0  0  0  0  0  0  0999 V2000
    0.0981    0.6753    0.3986 C   0  0  0  0  0  0  0  0  0  0  0  0
    0.1487   -0.7079    0.4109 C   0  0  0  0  0  0  0  0  0  0  0  0
   -1.0631   -1.3757    0.1667 C   0  0  0  0  0  0  0  0  0  0  0  0
   -2.1889   -0.6386    0.0273 N   0  0  0  0  0  0  0  0  0  0  0  0
   -2.0910    0.7068    0.0772 C   0  0  0  0  0  0  0  0  0  0  0  0
   -0.9789    1.4533    0.2281 N   0  0  0  0  0  0  0  0  0  0  0  0
    1.4014    1.0731    0.5073 N   0  0  0  0  0  0  0  0  0  0  0  0
    2.1651   -0.0472    0.7023 C   0  0  0  0  0  0  0  0  0  0  0  0
    1.4393   -1.1448    0.6365 N   0  0  0  0  0  0  0  0  0  0  0  0
   -1.1563   -2.7517    0.0325 N   0  0  0  0  0  0  0  0  0  0  0  0
    1.8773    2.4200    0.2445 C   0  0  3  0  0  0  0  0  0  0  0  0
    2.6747    2.9185    1.4436 C   0  0  0  0  0  0  0  0  0  0  0  0
    3.8846    3.1294    1.4538 O   0  0  0  0  0  0  0  0  0  0  0  0
    2.6329    2.4248   -0.9736 O   0  0  0  0  0  0  0  0  0  0  0  0
    1.8734    2.1636   -2.1590 C   0  0  3  0  0  0  0  0  0  0  0  0
    0.7607    3.1476   -2.5164 C   0  0  0  0  0  0  0  0  0  0  0  0
    0.4802    4.1439   -1.8578 O   0  0  0  0  0  0  0  0  0  0  0  0
    2.8446    2.1466   -3.3448 C   0  0  0  0  0  0  0  0  0  0  0  0
    3.7765    1.0759   -3.2075 O   0  0  0  0  0  0  0  0  0  0  0  0
   -3.0226    1.2557   -0.0279 H   0  0  0  0  0  0  0  0  0  0  0  0
    3.2388   -0.0087    0.8493 H   0  0  0  0  0  0  0  0  0  0  0  0
   -0.3715   -3.2677    0.4113 H   0  0  0  0  0  0  0  0  0  0  0  0
   -2.0902   -3.1060    0.1862 H   0  0  0  0  0  0  0  0  0  0  0  0
    1.0206    3.0938    0.1722 H   0  0  0  0  0  0  0  0  0  0  0  0
    2.0766    3.0803    2.3583 H   0  0  0  0  0  0  0  0  0  0  0  0
    1.4240    1.1679   -2.0818 H   0  0  0  0  0  0  0  0  0  0  0  0
    0.1818    2.8910   -3.4213 H   0  0  0  0  0  0  0  0  0  0  0  0
    2.3126    2.0009   -4.2911 H   0  0  0  0  0  0  0  0  0  0  0  0
    3.4119    3.0805   -3.4113 H   0  0  0  0  0  0  0  0  0  0  0  0
    4.2641    1.2407   -2.3776 H   0  0  0  0  0  0  0  0  0  0  0  0
  1  2  1  0  0  0  0
  1  7  1  0  0  0  0
  2  3  2  0  0  0  0
  3  4  1  0  0  0  0
  3 10  1  0  0  0  0
  4  5  2  0  0  0  0
  5  6  1  0  0  0  0
  5 20  1  0  0  0  0
  6  1  2  0  0  0  0
  7  8  1  0  0  0  0
  7 11  1  0  0  0  0
  8  9  2  0  0  0  0
  8 21  1  0  0  0  0
  9  2  1  0  0  0  0
 10 22  1  0  0  0  0
 10 23  1  0  0  0  0
 11 12  1  0  0  0  0
 11 14  1  0  0  0  0
 11 24  1  0  0  0  0
 12 13  2  0  0  0  0
 12 25  1  0  0  0  0
 14 15  1  0  0  0  0
 15 16  1  0  0  0  0
 15 18  1  0  0  0  0
 15 26  1  0  0  0  0
 16 17  2  0  0  0  0
 16 27  1  0  0  0  0
 18 19  1  0  0  0  0
 18 28  1  0  0  0  0
 18 29  1  0  0  0  0
 19 30  1  0  0  0  0
M  END
>  <Mol_ID>
4181

>  <Formula>
C10H11N5O4

>  <MolWeight>
265.22544

>  <Cat>
S8608

>  <Name>
Adenosine Dialdehyde (ADOX)

>  <Synonyms>
N/A

>  <Target>
SAM MTase,Transferase

>  <Form>
free base

>  <CAS>
34240-05-6

>  <URL>
http://selleckchem.com/products/adenosine-dialdehyde-adox.html

$$$$
