AdipoRon.cdx
 OpenBabel08302519583D

 60 63  0  0  0  0  0  0  0  0999 V2000
   -0.5178   13.7978   -5.0481 C   0  0  0  0  0  0  0  0  0  0  0  0
   -1.1103   15.0173   -4.7130 C   0  0  0  0  0  0  0  0  0  0  0  0
   -1.5493   15.2503   -3.4147 C   0  0  0  0  0  0  0  0  0  0  0  0
   -1.3890   14.2654   -2.4390 C   0  0  0  0  0  0  0  0  0  0  0  0
   -0.7832   13.0453   -2.7628 C   0  0  0  0  0  0  0  0  0  0  0  0
   -0.3584   12.8078   -4.0753 C   0  0  0  0  0  0  0  0  0  0  0  0
   -0.6784   12.0196   -1.7038 C   0  0  0  0  0  0  0  0  0  0  0  0
    0.4096   11.0136   -1.6654 C   0  0  0  0  0  0  0  0  0  0  0  0
   -1.5327   11.9965   -0.8174 O   0  0  0  0  0  0  0  0  0  0  0  0
    0.1022    9.7616   -1.1285 C   0  0  0  0  0  0  0  0  0  0  0  0
    1.0945    8.7932   -0.9841 C   0  0  0  0  0  0  0  0  0  0  0  0
    2.4119    9.0615   -1.3620 C   0  0  0  0  0  0  0  0  0  0  0  0
    2.7129   10.3048   -1.9230 C   0  0  0  0  0  0  0  0  0  0  0  0
    1.7212   11.2871   -2.0680 C   0  0  0  0  0  0  0  0  0  0  0  0
    3.4657    8.1946   -1.2073 O   0  0  0  0  0  0  0  0  0  0  0  0
    3.1505    6.9601   -0.5722 C   0  0  0  0  0  0  0  0  0  0  0  0
    4.3101    5.9777   -0.5632 C   0  0  0  0  0  0  0  0  0  0  0  0
    4.5360    5.2469   -1.5340 O   0  0  0  0  0  0  0  0  0  0  0  0
    5.1131    5.8274    0.5247 N   0  0  0  0  0  0  0  0  0  0  0  0
    5.1560    6.4820    1.8371 C   0  0  0  0  0  0  0  0  0  0  0  0
    5.6143    7.9379    1.7879 C   0  0  0  0  0  0  0  0  0  0  0  0
    7.0643    8.0602    1.3140 C   0  0  0  0  0  0  0  0  0  0  0  0
    8.0158    7.2584    2.1079 N   0  0  0  0  0  0  0  0  0  0  0  0
    7.5739    5.8627    2.2707 C   0  0  0  0  0  0  0  0  0  0  0  0
    6.1248    5.7257    2.7560 C   0  0  0  0  0  0  0  0  0  0  0  0
    9.3524    7.2544    1.4574 C   0  0  0  0  0  0  0  0  0  0  0  0
   10.0134    8.6123    1.3498 C   0  0  0  0  0  0  0  0  0  0  0  0
   10.3420    9.3453    2.4981 C   0  0  0  0  0  0  0  0  0  0  0  0
   10.9486   10.5990    2.3900 C   0  0  0  0  0  0  0  0  0  0  0  0
   11.2431   11.1303    1.1345 C   0  0  0  0  0  0  0  0  0  0  0  0
   10.9423   10.4026   -0.0144 C   0  0  0  0  0  0  0  0  0  0  0  0
   10.3342    9.1498    0.0916 C   0  0  0  0  0  0  0  0  0  0  0  0
   -0.1959   13.6138   -6.0703 H   0  0  0  0  0  0  0  0  0  0  0  0
   -1.2440   15.7819   -5.4754 H   0  0  0  0  0  0  0  0  0  0  0  0
   -2.0278   16.1935   -3.1555 H   0  0  0  0  0  0  0  0  0  0  0  0
   -1.7486   14.4461   -1.4279 H   0  0  0  0  0  0  0  0  0  0  0  0
    0.0696   11.8513   -4.3665 H   0  0  0  0  0  0  0  0  0  0  0  0
   -0.9124    9.5393   -0.8039 H   0  0  0  0  0  0  0  0  0  0  0  0
    0.7926    7.8419   -0.5569 H   0  0  0  0  0  0  0  0  0  0  0  0
    3.7338   10.5262   -2.2354 H   0  0  0  0  0  0  0  0  0  0  0  0
    1.9957   12.2612   -2.4641 H   0  0  0  0  0  0  0  0  0  0  0  0
    2.8054    7.1313    0.4531 H   0  0  0  0  0  0  0  0  0  0  0  0
    2.3587    6.4461   -1.1341 H   0  0  0  0  0  0  0  0  0  0  0  0
    5.7874    5.0920    0.3501 H   0  0  0  0  0  0  0  0  0  0  0  0
    4.1434    6.4343    2.2522 H   0  0  0  0  0  0  0  0  0  0  0  0
    4.9647    8.5340    1.1399 H   0  0  0  0  0  0  0  0  0  0  0  0
    5.5300    8.3722    2.7954 H   0  0  0  0  0  0  0  0  0  0  0  0
    7.1126    7.7858    0.2546 H   0  0  0  0  0  0  0  0  0  0  0  0
    7.3378    9.1197    1.3902 H   0  0  0  0  0  0  0  0  0  0  0  0
    8.2237    5.3614    2.9991 H   0  0  0  0  0  0  0  0  0  0  0  0
    7.6867    5.3140    1.3266 H   0  0  0  0  0  0  0  0  0  0  0  0
    6.0457    6.1127    3.7800 H   0  0  0  0  0  0  0  0  0  0  0  0
    5.8564    4.6631    2.7967 H   0  0  0  0  0  0  0  0  0  0  0  0
   10.0383    6.6101    2.0239 H   0  0  0  0  0  0  0  0  0  0  0  0
    9.2751    6.8073    0.4562 H   0  0  0  0  0  0  0  0  0  0  0  0
   10.1163    8.9398    3.4818 H   0  0  0  0  0  0  0  0  0  0  0  0
   11.1894   11.1628    3.2878 H   0  0  0  0  0  0  0  0  0  0  0  0
   11.7063   12.1093    1.0532 H   0  0  0  0  0  0  0  0  0  0  0  0
   11.1801   10.8101   -0.9936 H   0  0  0  0  0  0  0  0  0  0  0  0
   10.1102    8.5951   -0.8169 H   0  0  0  0  0  0  0  0  0  0  0  0
  1  2  2  0  0  0  0
  1 33  1  0  0  0  0
  2  3  1  0  0  0  0
  2 34  1  0  0  0  0
  3  4  2  0  0  0  0
  3 35  1  0  0  0  0
  4  5  1  0  0  0  0
  4 36  1  0  0  0  0
  5  6  2  0  0  0  0
  5  7  1  0  0  0  0
  6  1  1  0  0  0  0
  6 37  1  0  0  0  0
  7  8  1  0  0  0  0
  7  9  2  0  0  0  0
  8 10  2  0  0  0  0
 10 11  1  0  0  0  0
 10 38  1  0  0  0  0
 11 12  2  0  0  0  0
 11 39  1  0  0  0  0
 12 13  1  0  0  0  0
 12 15  1  0  0  0  0
 13 14  2  0  0  0  0
 13 40  1  0  0  0  0
 14  8  1  0  0  0  0
 14 41  1  0  0  0  0
 15 16  1  0  0  0  0
 16 17  1  0  0  0  0
 16 42  1  0  0  0  0
 16 43  1  0  0  0  0
 17 18  2  0  0  0  0
 17 19  1  0  0  0  0
 19 20  1  0  0  0  0
 19 44  1  0  0  0  0
 20 21  1  0  0  0  0
 20 45  1  0  0  0  0
 21 22  1  0  0  0  0
 21 46  1  0  0  0  0
 21 47  1  0  0  0  0
 22 23  1  0  0  0  0
 22 48  1  0  0  0  0
 22 49  1  0  0  0  0
 23 24  1  0  0  0  0
 23 26  1  0  0  0  0
 24 25  1  0  0  0  0
 24 50  1  0  0  0  0
 24 51  1  0  0  0  0
 25 20  1  0  0  0  0
 25 52  1  0  0  0  0
 25 53  1  0  0  0  0
 26 27  1  0  0  0  0
 26 54  1  0  0  0  0
 26 55  1  0  0  0  0
 27 28  2  0  0  0  0
 28 29  1  0  0  0  0
 28 56  1  0  0  0  0
 29 30  2  0  0  0  0
 29 57  1  0  0  0  0
 30 31  1  0  0  0  0
 30 58  1  0  0  0  0
 31 32  2  0  0  0  0
 31 59  1  0  0  0  0
 32 27  1  0  0  0  0
 32 60  1  0  0  0  0
M  END
>  <Mol_ID>
2353

>  <Formula>
C27H28N2O3

>  <MolWeight>
428.52282

>  <Cat>
S7365

>  <Name>
AdipoRon

>  <Synonyms>
SC-396658

>  <Target>
AdipoR

>  <Form>
free base

>  <CAS>
924416-43-3

>  <URL>
http://selleckchem.com/products/AdipoRon.html

$$$$
