ADX47273.cdx
 OpenBabel08302521493D

 44 47  0  0  0  0  0  0  0  0999 V2000
   -1.0034    0.2803    3.4351 C   0  0  0  0  0  0  0  0  0  0  0  0
   -0.9672   -0.9183    2.7315 C   0  0  0  0  0  0  0  0  0  0  0  0
   -1.6825   -1.0345    1.5422 C   0  0  0  0  0  0  0  0  0  0  0  0
   -2.4989    0.0199    1.1076 C   0  0  0  0  0  0  0  0  0  0  0  0
   -2.4809    1.2425    1.7922 C   0  0  0  0  0  0  0  0  0  0  0  0
   -1.7307    1.3700    2.9624 C   0  0  0  0  0  0  0  0  0  0  0  0
   -0.3279    0.3841    4.5865 F   0  0  0  0  0  0  0  0  0  0  0  0
   -3.3772   -0.1401   -0.0788 C   0  0  0  0  0  0  0  0  0  0  0  0
   -4.1684   -1.2872   -0.1949 N   0  0  0  0  0  0  0  0  0  0  0  0
   -3.3624    0.7607   -0.9171 O   0  0  0  0  0  0  0  0  0  0  0  0
   -4.8217   -1.5608   -1.4726 C   0  0  0  0  0  0  0  0  0  0  0  0
   -6.2903   -1.9357   -1.2936 C   0  0  0  0  0  0  0  0  0  0  0  0
   -6.4567   -3.0735   -0.2871 C   0  0  0  0  0  0  0  0  0  0  0  0
   -5.7976   -2.7488    1.0555 C   0  0  1  0  0  0  0  0  0  0  0  0
   -4.3424   -2.3102    0.8500 C   0  0  0  0  0  0  0  0  0  0  0  0
   -6.5540   -1.7288    1.8410 C   0  0  0  0  0  0  0  0  0  0  0  0
   -6.1753   -0.5533    2.2816 N   0  0  0  0  0  0  0  0  0  0  0  0
   -7.2652   -0.1336    3.0114 C   0  0  0  0  0  0  0  0  0  0  0  0
   -8.2776   -1.0173    3.0231 N   0  0  0  0  0  0  0  0  0  0  0  0
   -7.8063   -2.0765    2.2522 O   0  0  0  0  0  0  0  0  0  0  0  0
   -7.2727    1.1355    3.7337 C   0  0  0  0  0  0  0  0  0  0  0  0
   -6.1795    2.0124    3.6322 C   0  0  0  0  0  0  0  0  0  0  0  0
   -6.1643    3.2156    4.3442 C   0  0  0  0  0  0  0  0  0  0  0  0
   -7.2428    3.5432    5.1562 C   0  0  0  0  0  0  0  0  0  0  0  0
   -8.3377    2.6964    5.2669 C   0  0  0  0  0  0  0  0  0  0  0  0
   -8.3538    1.4919    4.5546 C   0  0  0  0  0  0  0  0  0  0  0  0
   -7.2284    4.6936    5.8444 F   0  0  0  0  0  0  0  0  0  0  0  0
   -0.3905   -1.7538    3.1158 H   0  0  0  0  0  0  0  0  0  0  0  0
   -1.6326   -1.9603    0.9757 H   0  0  0  0  0  0  0  0  0  0  0  0
   -3.0616    2.0845    1.4212 H   0  0  0  0  0  0  0  0  0  0  0  0
   -1.7132    2.3039    3.5152 H   0  0  0  0  0  0  0  0  0  0  0  0
   -4.2761   -2.3930   -1.9343 H   0  0  0  0  0  0  0  0  0  0  0  0
   -4.7410   -0.7075   -2.1534 H   0  0  0  0  0  0  0  0  0  0  0  0
   -6.7142   -2.2366   -2.2582 H   0  0  0  0  0  0  0  0  0  0  0  0
   -6.8546   -1.0598   -0.9528 H   0  0  0  0  0  0  0  0  0  0  0  0
   -7.5206   -3.3034   -0.1573 H   0  0  0  0  0  0  0  0  0  0  0  0
   -5.9880   -3.9777   -0.6982 H   0  0  0  0  0  0  0  0  0  0  0  0
   -5.7842   -3.6625    1.6651 H   0  0  0  0  0  0  0  0  0  0  0  0
   -3.9499   -1.9694    1.8098 H   0  0  0  0  0  0  0  0  0  0  0  0
   -3.7419   -3.1722    0.5337 H   0  0  0  0  0  0  0  0  0  0  0  0
   -5.3310    1.7607    3.0009 H   0  0  0  0  0  0  0  0  0  0  0  0
   -5.3200    3.8934    4.2704 H   0  0  0  0  0  0  0  0  0  0  0  0
   -9.1705    2.9724    5.9057 H   0  0  0  0  0  0  0  0  0  0  0  0
   -9.2153    0.8347    4.6538 H   0  0  0  0  0  0  0  0  0  0  0  0
  1  2  2  0  0  0  0
  1  7  1  0  0  0  0
  2  3  1  0  0  0  0
  2 28  1  0  0  0  0
  3  4  2  0  0  0  0
  3 29  1  0  0  0  0
  4  5  1  0  0  0  0
  4  8  1  0  0  0  0
  5  6  2  0  0  0  0
  5 30  1  0  0  0  0
  6  1  1  0  0  0  0
  6 31  1  0  0  0  0
  8  9  1  0  0  0  0
  8 10  2  0  0  0  0
  9 11  1  0  0  0  0
 11 12  1  0  0  0  0
 11 32  1  0  0  0  0
 11 33  1  0  0  0  0
 12 13  1  0  0  0  0
 12 34  1  0  0  0  0
 12 35  1  0  0  0  0
 13 14  1  0  0  0  0
 13 36  1  0  0  0  0
 13 37  1  0  0  0  0
 14 15  1  0  0  0  0
 14 16  1  0  0  0  0
 14 38  1  1  0  0  0
 15  9  1  0  0  0  0
 15 39  1  0  0  0  0
 15 40  1  0  0  0  0
 16 17  2  0  0  0  0
 17 18  1  0  0  0  0
 18 19  2  0  0  0  0
 18 21  1  0  0  0  0
 19 20  1  0  0  0  0
 20 16  1  0  0  0  0
 21 22  2  0  0  0  0
 22 23  1  0  0  0  0
 22 41  1  0  0  0  0
 23 24  2  0  0  0  0
 23 42  1  0  0  0  0
 24 25  1  0  0  0  0
 24 27  1  0  0  0  0
 25 26  2  0  0  0  0
 25 43  1  0  0  0  0
 26 21  1  0  0  0  0
 26 44  1  0  0  0  0
M  END
>  <Mol_ID>
977

>  <Formula>
C20H17F2N3O2

>  <MolWeight>
369.3646864

>  <Cat>
S2690

>  <Name>
ADX-47273

>  <Synonyms>
BA 94673139

>  <Target>
GluR

>  <Form>
free base

>  <CAS>
851881-60-2

>  <URL>
http://selleckchem.com/products/adx-47273.html

$$$$
