AEBSF hydrochloride .cdx
 OpenBabel08302519583D

 23 23  0  0  0  0  0  0  0  0999 V2000
    1.4147   -0.1925   -0.0070 C   0  0  0  0  0  0  0  0  0  0  0  0
    0.5152   -1.2597    0.0491 C   0  0  0  0  0  0  0  0  0  0  0  0
   -0.8675   -1.0317   -0.0362 C   0  0  0  0  0  0  0  0  0  0  0  0
   -1.3406    0.2832   -0.1704 C   0  0  0  0  0  0  0  0  0  0  0  0
   -0.4483    1.3551   -0.2248 C   0  0  0  0  0  0  0  0  0  0  0  0
    0.9220    1.1074   -0.1423 C   0  0  0  0  0  0  0  0  0  0  0  0
    2.0594    2.4574   -0.2165 S   0  0  0  0  0  0  0  0  0  0  0  0
    1.1961    3.7775   -0.3962 F   0  0  0  0  0  0  0  0  0  0  0  0
   -1.8419   -2.1856    0.0401 C   0  0  0  0  0  0  0  0  0  0  0  0
   -2.2785   -2.4709    1.4816 C   0  0  0  0  0  0  0  0  0  0  0  0
   -3.2445   -3.5673    1.5361 N   0  0  0  0  0  0  0  0  0  0  0  0
    2.6840    2.5775    1.0842 O   0  0  0  0  0  0  0  0  0  0  0  0
    2.8223    2.3241   -1.4400 O   0  0  0  0  0  0  0  0  0  0  0  0
    2.4842   -0.3789    0.0543 H   0  0  0  0  0  0  0  0  0  0  0  0
    0.8981   -2.2732    0.1560 H   0  0  0  0  0  0  0  0  0  0  0  0
   -2.4096    0.4753   -0.2372 H   0  0  0  0  0  0  0  0  0  0  0  0
   -0.8338    2.3662   -0.3299 H   0  0  0  0  0  0  0  0  0  0  0  0
   -2.7156   -1.9588   -0.5848 H   0  0  0  0  0  0  0  0  0  0  0  0
   -1.3816   -3.0797   -0.4005 H   0  0  0  0  0  0  0  0  0  0  0  0
   -1.4074   -2.7390    2.0900 H   0  0  0  0  0  0  0  0  0  0  0  0
   -2.7259   -1.5778    1.9330 H   0  0  0  0  0  0  0  0  0  0  0  0
   -3.4612   -3.7757    2.5107 H   0  0  0  0  0  0  0  0  0  0  0  0
   -4.1230   -3.2722    1.1107 H   0  0  0  0  0  0  0  0  0  0  0  0
  1  2  2  0  0  0  0
  1 14  1  0  0  0  0
  2  3  1  0  0  0  0
  2 15  1  0  0  0  0
  3  4  2  0  0  0  0
  3  9  1  0  0  0  0
  4  5  1  0  0  0  0
  4 16  1  0  0  0  0
  5  6  2  0  0  0  0
  5 17  1  0  0  0  0
  6  1  1  0  0  0  0
  6  7  1  0  0  0  0
  7  8  1  0  0  0  0
  7 12  2  0  0  0  0
  7 13  2  0  0  0  0
  9 10  1  0  0  0  0
  9 18  1  0  0  0  0
  9 19  1  0  0  0  0
 10 11  1  0  0  0  0
 10 20  1  0  0  0  0
 10 21  1  0  0  0  0
 11 22  1  0  0  0  0
 11 23  1  0  0  0  0
M  END
>  <Mol_ID>
2431

>  <Formula>
C8H11ClFNO2S

>  <MolWeight>
239.6948432

>  <Cat>
S7378

>  <Name>
AEBSF HCl

>  <Synonyms>
N/A

>  <Target>
Serine Protease

>  <Form>
Hydrochloride

>  <CAS>
30827-99-7

>  <URL>
http://selleckchem.com/products/aebsf-hcl.html

$$$$
