AEE-788.cdx
 OpenBabel08302520013D

 65 69  0  0  0  0  0  0  0  0999 V2000
   -1.7951    0.8270   -1.6875 C   0  0  0  0  0  0  0  0  0  0  0  0
   -2.2259    0.4815   -0.4575 N   0  0  0  0  0  0  0  0  0  0  0  0
   -1.3471   -0.0204    0.4451 C   0  0  0  0  0  0  0  0  0  0  0  0
    0.0023   -0.1261    0.0452 C   0  0  0  0  0  0  0  0  0  0  0  0
    0.2965    0.2680   -1.2491 C   0  0  0  0  0  0  0  0  0  0  0  0
   -0.5506    0.7529   -2.1669 N   0  0  0  0  0  0  0  0  0  0  0  0
    1.2496   -0.5324    0.6215 C   0  0  0  0  0  0  0  0  0  0  0  0
    2.2465   -0.4240   -0.3421 C   0  0  0  0  0  0  0  0  0  0  0  0
    1.6256    0.0906   -1.4637 N   0  0  0  0  0  0  0  0  0  0  0  0
    3.6952   -0.6498   -0.3213 C   0  0  0  0  0  0  0  0  0  0  0  0
    4.3843   -0.9470   -1.5089 C   0  0  0  0  0  0  0  0  0  0  0  0
    5.7809   -0.9276   -1.5576 C   0  0  0  0  0  0  0  0  0  0  0  0
    6.5208   -0.6397   -0.4076 C   0  0  0  0  0  0  0  0  0  0  0  0
    5.8385   -0.4871    0.8080 C   0  0  0  0  0  0  0  0  0  0  0  0
    4.4391   -0.4807    0.8501 C   0  0  0  0  0  0  0  0  0  0  0  0
    8.0220   -0.4696   -0.4708 C   0  0  0  0  0  0  0  0  0  0  0  0
    8.4855    0.8834   -0.8507 N   0  0  0  0  0  0  0  0  0  0  0  0
    9.9575    0.8999   -0.9749 C   0  0  0  0  0  0  0  0  0  0  0  0
   10.6928    0.7391    0.3774 C   0  0  0  0  0  0  0  0  0  0  0  0
   10.3717    1.7663    1.3851 N   0  0  0  0  0  0  0  0  0  0  0  0
    8.9245    2.0609    1.4130 C   0  0  0  0  0  0  0  0  0  0  0  0
    8.1228    1.9692    0.0828 C   0  0  0  0  0  0  0  0  0  0  0  0
   11.2721    2.9171    1.2593 C   0  0  0  0  0  0  0  0  0  0  0  0
   11.1685    3.9443    2.3836 C   0  0  0  0  0  0  0  0  0  0  0  0
   -1.7998   -0.4238    1.6890 N   0  0  0  0  0  0  0  0  0  0  0  0
   -3.0374    0.1339    2.2200 C   0  0  1  0  0  0  0  0  0  0  0  0
   -4.0784   -0.9544    2.4138 C   0  0  0  0  0  0  0  0  0  0  0  0
   -3.8351   -2.0878    3.2058 C   0  0  0  0  0  0  0  0  0  0  0  0
   -4.8304   -3.0408    3.4211 C   0  0  0  0  0  0  0  0  0  0  0  0
   -6.0891   -2.8781    2.8415 C   0  0  0  0  0  0  0  0  0  0  0  0
   -6.3461   -1.7681    2.0418 C   0  0  0  0  0  0  0  0  0  0  0  0
   -5.3508   -0.8180    1.8264 C   0  0  0  0  0  0  0  0  0  0  0  0
   -2.7482    0.8423    3.5468 C   0  0  0  0  0  0  0  0  0  0  0  0
   -2.5493    1.2083   -2.3665 H   0  0  0  0  0  0  0  0  0  0  0  0
    1.3979   -0.8664    1.6415 H   0  0  0  0  0  0  0  0  0  0  0  0
    2.0869    0.3510   -2.3229 H   0  0  0  0  0  0  0  0  0  0  0  0
    3.8423   -1.1665   -2.4258 H   0  0  0  0  0  0  0  0  0  0  0  0
    6.2830   -1.1116   -2.5052 H   0  0  0  0  0  0  0  0  0  0  0  0
    6.3986   -0.3210    1.7254 H   0  0  0  0  0  0  0  0  0  0  0  0
    3.9478   -0.2853    1.7992 H   0  0  0  0  0  0  0  0  0  0  0  0
    8.4482   -0.8093    0.4818 H   0  0  0  0  0  0  0  0  0  0  0  0
    8.3889   -1.1760   -1.2268 H   0  0  0  0  0  0  0  0  0  0  0  0
   10.2835    0.1177   -1.6704 H   0  0  0  0  0  0  0  0  0  0  0  0
   10.2583    1.8479   -1.4417 H   0  0  0  0  0  0  0  0  0  0  0  0
   10.4520   -0.2364    0.8146 H   0  0  0  0  0  0  0  0  0  0  0  0
   11.7721    0.6950    0.1914 H   0  0  0  0  0  0  0  0  0  0  0  0
    8.4787    1.3393    2.1081 H   0  0  0  0  0  0  0  0  0  0  0  0
    8.7250    3.0408    1.8630 H   0  0  0  0  0  0  0  0  0  0  0  0
    8.2763    2.9144   -0.4574 H   0  0  0  0  0  0  0  0  0  0  0  0
    7.0498    1.9592    0.3052 H   0  0  0  0  0  0  0  0  0  0  0  0
   12.3027    2.5372    1.3093 H   0  0  0  0  0  0  0  0  0  0  0  0
   11.1645    3.4155    0.2904 H   0  0  0  0  0  0  0  0  0  0  0  0
   11.1857    3.4663    3.3689 H   0  0  0  0  0  0  0  0  0  0  0  0
   12.0239    4.6289    2.3368 H   0  0  0  0  0  0  0  0  0  0  0  0
   10.2626    4.5502    2.3008 H   0  0  0  0  0  0  0  0  0  0  0  0
   -1.1112   -0.7595    2.3439 H   0  0  0  0  0  0  0  0  0  0  0  0
   -3.4530    0.8991    1.5522 H   0  0  0  0  0  0  0  0  0  0  0  0
   -2.8576   -2.2327    3.6690 H   0  0  0  0  0  0  0  0  0  0  0  0
   -4.6285   -3.9100    4.0396 H   0  0  0  0  0  0  0  0  0  0  0  0
   -6.8656   -3.6182    3.0140 H   0  0  0  0  0  0  0  0  0  0  0  0
   -7.3265   -1.6439    1.5861 H   0  0  0  0  0  0  0  0  0  0  0  0
   -5.5706    0.0438    1.1957 H   0  0  0  0  0  0  0  0  0  0  0  0
   -2.0144    1.6436    3.4044 H   0  0  0  0  0  0  0  0  0  0  0  0
   -3.6615    1.2878    3.9583 H   0  0  0  0  0  0  0  0  0  0  0  0
   -2.3432    0.1570    4.3002 H   0  0  0  0  0  0  0  0  0  0  0  0
  1  2  2  0  0  0  0
  1 34  1  0  0  0  0
  2  3  1  0  0  0  0
  3  4  2  0  0  0  0
  3 25  1  0  0  0  0
  4  5  1  0  0  0  0
  4  7  1  0  0  0  0
  5  6  2  0  0  0  0
  6  1  1  0  0  0  0
  7  8  2  0  0  0  0
  7 35  1  0  0  0  0
  8  9  1  0  0  0  0
  8 10  1  0  0  0  0
  9  5  1  0  0  0  0
  9 36  1  0  0  0  0
 10 11  2  0  0  0  0
 11 12  1  0  0  0  0
 11 37  1  0  0  0  0
 12 13  2  0  0  0  0
 12 38  1  0  0  0  0
 13 14  1  0  0  0  0
 13 16  1  0  0  0  0
 14 15  2  0  0  0  0
 14 39  1  0  0  0  0
 15 10  1  0  0  0  0
 15 40  1  0  0  0  0
 16 17  1  0  0  0  0
 16 41  1  0  0  0  0
 16 42  1  0  0  0  0
 17 18  1  0  0  0  0
 18 19  1  0  0  0  0
 18 43  1  0  0  0  0
 18 44  1  0  0  0  0
 19 20  1  0  0  0  0
 19 45  1  0  0  0  0
 19 46  1  0  0  0  0
 20 21  1  0  0  0  0
 20 23  1  0  0  0  0
 21 22  1  0  0  0  0
 21 47  1  0  0  0  0
 21 48  1  0  0  0  0
 22 17  1  0  0  0  0
 22 49  1  0  0  0  0
 22 50  1  0  0  0  0
 23 24  1  0  0  0  0
 23 51  1  0  0  0  0
 23 52  1  0  0  0  0
 24 53  1  0  0  0  0
 24 54  1  0  0  0  0
 24 55  1  0  0  0  0
 25 26  1  0  0  0  0
 25 56  1  0  0  0  0
 26 27  1  0  0  0  0
 26 33  1  0  0  0  0
 26 57  1  6  0  0  0
 27 28  2  0  0  0  0
 28 29  1  0  0  0  0
 28 58  1  0  0  0  0
 29 30  2  0  0  0  0
 29 59  1  0  0  0  0
 30 31  1  0  0  0  0
 30 60  1  0  0  0  0
 31 32  2  0  0  0  0
 31 61  1  0  0  0  0
 32 27  1  0  0  0  0
 32 62  1  0  0  0  0
 33 63  1  0  0  0  0
 33 64  1  0  0  0  0
 33 65  1  0  0  0  0
M  END
>  <Mol_ID>
286

>  <Formula>
C27H32N6

>  <MolWeight>
440.58318

>  <Cat>
S1486

>  <Name>
AEE788 (NVP-AEE788)

>  <Synonyms>
N/A

>  <Target>
EGFR,HER2,VEGFR

>  <Form>
free base

>  <CAS>
497839-62-0

>  <URL>
http://selleckchem.com/products/AEE788.html

$$$$
