AG-636
 OpenBabel08302521313D

 43 46  0  0  0  0  0  0  0  0999 V2000
   -2.0129    0.5824   -0.5614 C   0  0  0  0  0  0  0  0  0  0  0  0
   -2.0603   -0.7365   -0.0831 C   0  0  0  0  0  0  0  0  0  0  0  0
   -0.8618   -1.2948    0.3878 C   0  0  0  0  0  0  0  0  0  0  0  0
    0.3253   -0.5427    0.3742 C   0  0  0  0  0  0  0  0  0  0  0  0
    0.3462    0.7531   -0.1459 C   0  0  0  0  0  0  0  0  0  0  0  0
   -0.8221    1.3301   -0.6554 C   0  0  0  0  0  0  0  0  0  0  0  0
   -3.3442   -1.4699   -0.0565 C   0  0  0  0  0  0  0  0  0  0  0  0
   -4.3536   -1.1846   -0.9878 C   0  0  0  0  0  0  0  0  0  0  0  0
   -5.6370   -1.7212   -0.8613 C   0  0  0  0  0  0  0  0  0  0  0  0
   -5.9582   -2.6333    0.1555 C   0  0  0  0  0  0  0  0  0  0  0  0
   -4.9009   -3.0430    0.9792 C   0  0  0  0  0  0  0  0  0  0  0  0
   -3.6364   -2.4385    0.9113 C   0  0  0  0  0  0  0  0  0  0  0  0
   -7.3592   -3.0986    0.3414 C   0  0  0  0  0  0  0  0  0  0  0  0
   -8.1668   -3.2954   -0.8052 C   0  0  0  0  0  0  0  0  0  0  0  0
   -9.5123   -3.6584   -0.7222 C   0  0  0  0  0  0  0  0  0  0  0  0
  -10.0853   -3.8890    0.5167 C   0  0  0  0  0  0  0  0  0  0  0  0
   -9.3196   -3.7264    1.6661 C   0  0  0  0  0  0  0  0  0  0  0  0
   -7.9766   -3.2956    1.6040 C   0  0  0  0  0  0  0  0  0  0  0  0
   -7.3125   -3.0716    2.9400 C   0  0  0  0  0  0  0  0  0  0  0  0
   -0.9039    2.6903   -1.2087 C   0  0  0  0  0  0  0  0  0  0  0  0
   -1.6554    2.7637   -2.3266 O   0  0  0  0  0  0  0  0  0  0  0  0
    1.5683   -0.8930    0.8135 N   0  0  0  0  0  0  0  0  0  0  0  0
    2.3767    0.1282    0.5948 N   0  0  0  0  0  0  0  0  0  0  0  0
    1.6601    1.1137    0.0156 N   0  0  0  0  0  0  0  0  0  0  0  0
   -0.3511    3.6424   -0.6895 O   0  0  0  0  0  0  0  0  0  0  0  0
    2.3776    2.3139   -0.3293 C   0  0  0  0  0  0  0  0  0  0  0  0
   -2.9462    1.0772   -0.8366 H   0  0  0  0  0  0  0  0  0  0  0  0
   -0.8193   -2.3048    0.7838 H   0  0  0  0  0  0  0  0  0  0  0  0
   -4.1777   -0.5036   -1.8165 H   0  0  0  0  0  0  0  0  0  0  0  0
   -6.3935   -1.3787   -1.5640 H   0  0  0  0  0  0  0  0  0  0  0  0
   -5.0566   -3.8102    1.7339 H   0  0  0  0  0  0  0  0  0  0  0  0
   -2.9026   -2.7183    1.6642 H   0  0  0  0  0  0  0  0  0  0  0  0
   -7.7520   -3.1545   -1.8019 H   0  0  0  0  0  0  0  0  0  0  0  0
  -10.1043   -3.7606   -1.6274 H   0  0  0  0  0  0  0  0  0  0  0  0
  -11.1271   -4.1860    0.5929 H   0  0  0  0  0  0  0  0  0  0  0  0
   -9.7835   -3.9125    2.6334 H   0  0  0  0  0  0  0  0  0  0  0  0
   -8.0033   -2.5613    3.6207 H   0  0  0  0  0  0  0  0  0  0  0  0
   -7.0323   -4.0333    3.3830 H   0  0  0  0  0  0  0  0  0  0  0  0
   -6.4344   -2.4265    2.8912 H   0  0  0  0  0  0  0  0  0  0  0  0
   -1.9792    1.9151   -2.6820 H   0  0  0  0  0  0  0  0  0  0  0  0
    2.6223    2.8432    0.5959 H   0  0  0  0  0  0  0  0  0  0  0  0
    3.2994    2.0247   -0.8446 H   0  0  0  0  0  0  0  0  0  0  0  0
    1.8030    2.9442   -0.9992 H   0  0  0  0  0  0  0  0  0  0  0  0
  1  2  2  0  0  0  0
  1 27  1  0  0  0  0
  2  3  1  0  0  0  0
  2  7  1  0  0  0  0
  3  4  2  0  0  0  0
  3 28  1  0  0  0  0
  4  5  1  0  0  0  0
  4 22  1  0  0  0  0
  5  6  2  0  0  0  0
  6  1  1  0  0  0  0
  6 20  1  0  0  0  0
  7  8  2  0  0  0  0
  8  9  1  0  0  0  0
  8 29  1  0  0  0  0
  9 10  2  0  0  0  0
  9 30  1  0  0  0  0
 10 11  1  0  0  0  0
 10 13  1  0  0  0  0
 11 12  2  0  0  0  0
 11 31  1  0  0  0  0
 12  7  1  0  0  0  0
 12 32  1  0  0  0  0
 13 14  2  0  0  0  0
 14 15  1  0  0  0  0
 14 33  1  0  0  0  0
 15 16  2  0  0  0  0
 15 34  1  0  0  0  0
 16 17  1  0  0  0  0
 16 35  1  0  0  0  0
 17 18  2  0  0  0  0
 17 36  1  0  0  0  0
 18 13  1  0  0  0  0
 18 19  1  0  0  0  0
 19 37  1  0  0  0  0
 19 38  1  0  0  0  0
 19 39  1  0  0  0  0
 20 21  1  0  0  0  0
 20 25  2  0  0  0  0
 21 40  1  0  0  0  0
 22 23  2  0  0  0  0
 23 24  1  0  0  0  0
 24  5  1  0  0  0  0
 24 26  1  0  0  0  0
 26 41  1  0  0  0  0
 26 42  1  0  0  0  0
 26 43  1  0  0  0  0
M  END
>  <Mol_ID>
5814

>  <Formula>
C21H17N3O2

>  <MolWeight>
343.37858

>  <Cat>
S9776

>  <Name>
AG-636

>  <Synonyms>
N/A

>  <Target>
Dehydrogenase

>  <Form>
Free Base

>  <CAS>
1623416-31-8

>  <URL>
http://www.selleckchem.com/products/ag-636.html

$$$$
