Agarotetrol
 OpenBabel08302521243D

 41 43  0  0  0  0  0  0  0  0999 V2000
   -2.5912    0.5159   -0.2373 C   0  0  2  0  0  0  0  0  0  0  0  0
   -2.5338   -0.8653    0.4425 C   0  0  1  0  0  0  0  0  0  0  0  0
   -1.3283   -1.6523   -0.1139 C   0  0  2  0  0  0  0  0  0  0  0  0
   -0.0680   -0.8400   -0.0604 C   0  0  0  0  0  0  0  0  0  0  0  0
   -0.0393    0.5034    0.0086 C   0  0  0  0  0  0  0  0  0  0  0  0
   -1.3005    1.3319   -0.0054 C   0  0  1  0  0  0  0  0  0  0  0  0
    1.2159   -1.5682   -0.0337 C   0  0  0  0  0  0  0  0  0  0  0  0
    2.4448   -0.7502    0.0046 C   0  0  0  0  0  0  0  0  0  0  0  0
    1.1316    1.2387    0.1092 O   0  0  0  0  0  0  0  0  0  0  0  0
   -3.7235    1.2644    0.2264 O   0  0  0  0  0  0  0  0  0  0  0  0
   -2.4685   -0.8049    1.8750 O   0  0  0  0  0  0  0  0  0  0  0  0
   -1.2269    2.3323   -1.0294 O   0  0  0  0  0  0  0  0  0  0  0  0
   -1.5796   -1.9615   -1.4862 O   0  0  0  0  0  0  0  0  0  0  0  0
    2.3554    0.5817    0.0648 C   0  0  0  0  0  0  0  0  0  0  0  0
    3.5451    1.5234    0.0456 C   0  0  0  0  0  0  0  0  0  0  0  0
    4.7129    1.1574   -0.8940 C   0  0  0  0  0  0  0  0  0  0  0  0
    4.2706    0.9644   -2.3256 C   0  0  0  0  0  0  0  0  0  0  0  0
    3.7676    2.0384   -3.0719 C   0  0  0  0  0  0  0  0  0  0  0  0
    3.2078    1.8199   -4.3313 C   0  0  0  0  0  0  0  0  0  0  0  0
    3.1474    0.5295   -4.8544 C   0  0  0  0  0  0  0  0  0  0  0  0
    3.6955   -0.5357   -4.1439 C   0  0  0  0  0  0  0  0  0  0  0  0
    4.2738   -0.3164   -2.8947 C   0  0  0  0  0  0  0  0  0  0  0  0
    1.2768   -2.7900   -0.0476 O   0  0  0  0  0  0  0  0  0  0  0  0
   -2.7471    0.3769   -1.3153 H   0  0  0  0  0  0  0  0  0  0  0  0
   -3.4614   -1.4012    0.2082 H   0  0  0  0  0  0  0  0  0  0  0  0
   -1.2231   -2.5833    0.4562 H   0  0  0  0  0  0  0  0  0  0  0  0
   -1.3803    1.8753    0.9442 H   0  0  0  0  0  0  0  0  0  0  0  0
    3.3811   -1.2921   -0.0408 H   0  0  0  0  0  0  0  0  0  0  0  0
   -3.6965    2.1162   -0.2500 H   0  0  0  0  0  0  0  0  0  0  0  0
   -1.8736   -0.0889    2.1490 H   0  0  0  0  0  0  0  0  0  0  0  0
   -0.8459    1.9066   -1.8193 H   0  0  0  0  0  0  0  0  0  0  0  0
   -1.3525   -2.9022   -1.6033 H   0  0  0  0  0  0  0  0  0  0  0  0
    3.1888    2.5253   -0.2287 H   0  0  0  0  0  0  0  0  0  0  0  0
    3.9285    1.6136    1.0696 H   0  0  0  0  0  0  0  0  0  0  0  0
    5.4681    1.9528   -0.8608 H   0  0  0  0  0  0  0  0  0  0  0  0
    5.2169    0.2546   -0.5268 H   0  0  0  0  0  0  0  0  0  0  0  0
    3.7811    3.0476   -2.6661 H   0  0  0  0  0  0  0  0  0  0  0  0
    2.7996    2.6538   -4.8961 H   0  0  0  0  0  0  0  0  0  0  0  0
    2.6736    0.3531   -5.8162 H   0  0  0  0  0  0  0  0  0  0  0  0
    3.6565   -1.5419   -4.5528 H   0  0  0  0  0  0  0  0  0  0  0  0
    4.6922   -1.1613   -2.3526 H   0  0  0  0  0  0  0  0  0  0  0  0
  1  2  1  0  0  0  0
  1 24  1  6  0  0  0
  1 10  1  0  0  0  0
  2  3  1  0  0  0  0
  2 11  1  0  0  0  0
  2 25  1  6  0  0  0
  3  4  1  0  0  0  0
  3 26  1  1  0  0  0
  3 13  1  0  0  0  0
  4  5  2  0  0  0  0
  4  7  1  0  0  0  0
  5  6  1  0  0  0  0
  6  1  1  0  0  0  0
  6 12  1  0  0  0  0
  6 27  1  1  0  0  0
  7  8  1  0  0  0  0
  7 23  2  0  0  0  0
  8 28  1  0  0  0  0
  9  5  1  0  0  0  0
  9 14  1  0  0  0  0
 10 29  1  0  0  0  0
 11 30  1  0  0  0  0
 12 31  1  0  0  0  0
 13 32  1  0  0  0  0
 14  8  2  0  0  0  0
 14 15  1  0  0  0  0
 15 16  1  0  0  0  0
 15 33  1  0  0  0  0
 15 34  1  0  0  0  0
 16 17  1  0  0  0  0
 16 35  1  0  0  0  0
 16 36  1  0  0  0  0
 17 18  2  0  0  0  0
 18 19  1  0  0  0  0
 18 37  1  0  0  0  0
 19 20  2  0  0  0  0
 19 38  1  0  0  0  0
 20 21  1  0  0  0  0
 20 39  1  0  0  0  0
 21 22  2  0  0  0  0
 21 40  1  0  0  0  0
 22 17  1  0  0  0  0
 22 41  1  0  0  0  0
M  END
>  <Mol_ID>
5140

>  <Formula>
C17H18O6

>  <MolWeight>
318.32122

>  <Cat>
S3263

>  <Name>
Agarotetrol

>  <Synonyms>
N/A

>  <Target>
Others

>  <Form>
free base

>  <CAS>
69809-22-9

>  <URL>
http://www.selleckchem.com/products/agarotetrol.html

$$$$
