AK 7
 OpenBabel08302520143D

 47 49  0  0  0  0  0  0  0  0999 V2000
    1.0763    0.0617    0.2342 C   0  0  0  0  0  0  0  0  0  0  0  0
    0.2224    1.2817    0.2652 C   0  0  0  0  0  0  0  0  0  0  0  0
    0.5643    2.3409   -0.5906 C   0  0  0  0  0  0  0  0  0  0  0  0
   -0.2159    3.4993   -0.6084 C   0  0  0  0  0  0  0  0  0  0  0  0
   -1.3194    3.6191    0.2414 C   0  0  0  0  0  0  0  0  0  0  0  0
   -1.6779    2.5527    1.0689 C   0  0  0  0  0  0  0  0  0  0  0  0
   -0.9138    1.3818    1.0797 C   0  0  0  0  0  0  0  0  0  0  0  0
    1.5600   -0.2475   -0.8497 O   0  0  0  0  0  0  0  0  0  0  0  0
    1.2577   -0.5921    1.4409 N   0  0  0  0  0  0  0  0  0  0  0  0
    2.0519   -1.7441    1.6649 C   0  0  0  0  0  0  0  0  0  0  0  0
    2.8116   -2.3697    0.6738 C   0  0  0  0  0  0  0  0  0  0  0  0
    3.5491   -3.5200    0.9676 C   0  0  0  0  0  0  0  0  0  0  0  0
    3.5490   -4.0576    2.2509 C   0  0  0  0  0  0  0  0  0  0  0  0
    2.8108   -3.4321    3.2521 C   0  0  0  0  0  0  0  0  0  0  0  0
    2.0681   -2.2813    2.9626 C   0  0  0  0  0  0  0  0  0  0  0  0
    4.5542   -4.3615   -0.3975 Br  0  0  0  0  0  0  0  0  0  0  0  0
    0.2696    4.8769   -1.6398 S   0  0  0  0  0  0  0  0  0  0  0  0
   -0.2570    6.0766   -1.0230 O   0  0  0  0  0  0  0  0  0  0  0  0
    1.6859    4.7378   -1.9021 O   0  0  0  0  0  0  0  0  0  0  0  0
   -0.5896    4.6011   -3.0937 N   0  0  0  0  0  0  0  0  0  0  0  0
   -0.1433    3.4655   -3.9291 C   0  0  0  0  0  0  0  0  0  0  0  0
   -0.2134    3.8059   -5.4177 C   0  0  0  0  0  0  0  0  0  0  0  0
   -1.5851    3.5866   -6.0466 C   0  0  0  0  0  0  0  0  0  0  0  0
   -2.6852    4.4671   -5.4720 C   0  0  0  0  0  0  0  0  0  0  0  0
   -2.9482    4.1991   -3.9955 C   0  0  0  0  0  0  0  0  0  0  0  0
   -2.0252    4.9668   -3.0598 C   0  0  0  0  0  0  0  0  0  0  0  0
    1.4434    2.2564   -1.2284 H   0  0  0  0  0  0  0  0  0  0  0  0
   -1.9050    4.5362    0.2642 H   0  0  0  0  0  0  0  0  0  0  0  0
   -2.5563    2.6361    1.7062 H   0  0  0  0  0  0  0  0  0  0  0  0
   -1.2309    0.5531    1.7071 H   0  0  0  0  0  0  0  0  0  0  0  0
    0.8156   -0.1975    2.2610 H   0  0  0  0  0  0  0  0  0  0  0  0
    2.8529   -1.9803   -0.3374 H   0  0  0  0  0  0  0  0  0  0  0  0
    4.1178   -4.9557    2.4761 H   0  0  0  0  0  0  0  0  0  0  0  0
    2.8099   -3.8438    4.2593 H   0  0  0  0  0  0  0  0  0  0  0  0
    1.5001   -1.8192    3.7653 H   0  0  0  0  0  0  0  0  0  0  0  0
   -0.7000    2.5553   -3.6866 H   0  0  0  0  0  0  0  0  0  0  0  0
    0.9097    3.2510   -3.7160 H   0  0  0  0  0  0  0  0  0  0  0  0
    0.4894    3.1508   -5.9488 H   0  0  0  0  0  0  0  0  0  0  0  0
    0.1213    4.8347   -5.5979 H   0  0  0  0  0  0  0  0  0  0  0  0
   -1.5118    3.7820   -7.1236 H   0  0  0  0  0  0  0  0  0  0  0  0
   -1.8702    2.5318   -5.9454 H   0  0  0  0  0  0  0  0  0  0  0  0
   -2.4544    5.5258   -5.6397 H   0  0  0  0  0  0  0  0  0  0  0  0
   -3.6068    4.2580   -6.0296 H   0  0  0  0  0  0  0  0  0  0  0  0
   -3.9730    4.5265   -3.7768 H   0  0  0  0  0  0  0  0  0  0  0  0
   -2.9246    3.1247   -3.7802 H   0  0  0  0  0  0  0  0  0  0  0  0
   -2.0967    6.0392   -3.2799 H   0  0  0  0  0  0  0  0  0  0  0  0
   -2.4208    4.8294   -2.0493 H   0  0  0  0  0  0  0  0  0  0  0  0
  1  2  1  0  0  0  0
  1  8  2  0  0  0  0
  1  9  1  0  0  0  0
  2  3  2  0  0  0  0
  2  7  1  0  0  0  0
  3  4  1  0  0  0  0
  3 27  1  0  0  0  0
  4  5  2  0  0  0  0
  4 17  1  0  0  0  0
  5  6  1  0  0  0  0
  5 28  1  0  0  0  0
  6  7  2  0  0  0  0
  6 29  1  0  0  0  0
  7 30  1  0  0  0  0
  9 10  1  0  0  0  0
  9 31  1  0  0  0  0
 10 11  2  0  0  0  0
 10 15  1  0  0  0  0
 11 12  1  0  0  0  0
 11 32  1  0  0  0  0
 12 13  2  0  0  0  0
 12 16  1  0  0  0  0
 13 14  1  0  0  0  0
 13 33  1  0  0  0  0
 14 15  2  0  0  0  0
 14 34  1  0  0  0  0
 15 35  1  0  0  0  0
 17 18  2  0  0  0  0
 17 19  2  0  0  0  0
 17 20  1  0  0  0  0
 20 21  1  0  0  0  0
 20 26  1  0  0  0  0
 21 22  1  0  0  0  0
 21 36  1  0  0  0  0
 21 37  1  0  0  0  0
 22 23  1  0  0  0  0
 22 38  1  0  0  0  0
 22 39  1  0  0  0  0
 23 24  1  0  0  0  0
 23 40  1  0  0  0  0
 23 41  1  0  0  0  0
 24 25  1  0  0  0  0
 24 42  1  0  0  0  0
 24 43  1  0  0  0  0
 25 26  1  0  0  0  0
 25 44  1  0  0  0  0
 25 45  1  0  0  0  0
 26 46  1  0  0  0  0
 26 47  1  0  0  0  0
M  END
>  <Mol_ID>
3177

>  <Formula>
C19H21BrN2O3S

>  <MolWeight>
437.35064

>  <Cat>
S5914

>  <Name>
AK 7

>  <Synonyms>
N/A

>  <Target>
Sirtuin

>  <Form>
Free Base

>  <CAS>
420831-40-9

>  <URL>
http://www.selleckchem.com/products/ak-7.html

$$$$
