AKI603
 OpenBabel08302521323D

 53 56  0  0  0  0  0  0  0  0999 V2000
    0.8774   -0.0629   -0.0545 N   0  0  0  0  0  0  0  0  0  0  0  0
    0.2254   -4.7242    0.1511 N   0  0  0  0  0  0  0  0  0  0  0  0
   -6.1552   -2.3117   -4.7901 C   0  0  0  0  0  0  0  0  0  0  0  0
   -1.7446   -9.2445    0.5803 C   0  0  0  0  0  0  0  0  0  0  0  0
    6.4818    0.0920    0.8494 N   0  3  0  0  0  0  0  0  0  0  0  0
    7.1963   -0.6555    0.1676 O   0  5  0  0  0  0  0  0  0  0  0  0
    6.9083    0.8930    1.6930 O   0  0  0  0  0  0  0  0  0  0  0  0
   -1.5222   -2.1045   -1.7154 C   0  0  0  0  0  0  0  0  0  0  0  0
   -0.8698   -1.0108   -1.2934 N   0  0  0  0  0  0  0  0  0  0  0  0
   -1.1872   -3.3515   -1.2423 C   0  0  0  0  0  0  0  0  0  0  0  0
    0.1511   -1.2031   -0.4400 C   0  0  0  0  0  0  0  0  0  0  0  0
   -0.1552   -3.4682   -0.3465 C   0  0  0  0  0  0  0  0  0  0  0  0
    0.5457   -2.4004    0.0345 N   0  0  0  0  0  0  0  0  0  0  0  0
   -2.5919   -2.0250   -2.5908 N   0  0  0  0  0  0  0  0  0  0  0  0
   -3.3233   -0.7710   -2.7328 C   0  0  0  0  0  0  0  0  0  0  0  0
   -2.5048   -2.7917   -3.8423 C   0  0  0  0  0  0  0  0  0  0  0  0
   -4.7591   -1.1204   -3.2099 C   0  0  0  0  0  0  0  0  0  0  0  0
   -3.9354   -3.1241   -4.3162 C   0  0  0  0  0  0  0  0  0  0  0  0
   -4.7854   -1.9188   -4.4644 N   0  0  0  0  0  0  0  0  0  0  0  0
    2.2646   -0.0644    0.1935 C   0  0  0  0  0  0  0  0  0  0  0  0
    3.1380   -0.9027   -0.5178 C   0  0  0  0  0  0  0  0  0  0  0  0
    2.8025    0.8476    1.1096 C   0  0  0  0  0  0  0  0  0  0  0  0
    4.5135   -0.8707   -0.2941 C   0  0  0  0  0  0  0  0  0  0  0  0
    4.1812    0.8896    1.3482 C   0  0  0  0  0  0  0  0  0  0  0  0
    5.0315    0.0325    0.6370 C   0  0  0  0  0  0  0  0  0  0  0  0
   -0.6325   -5.7403    0.3981 C   0  0  0  0  0  0  0  0  0  0  0  0
   -1.9306   -5.6080    0.6830 N   0  0  0  0  0  0  0  0  0  0  0  0
   -0.2636   -7.1007    0.3226 C   0  0  0  0  0  0  0  0  0  0  0  0
   -2.3814   -6.8587    0.7899 N   0  0  0  0  0  0  0  0  0  0  0  0
   -1.4260   -7.8035    0.5592 C   0  0  0  0  0  0  0  0  0  0  0  0
    0.5824    0.6839   -0.6755 H   0  0  0  0  0  0  0  0  0  0  0  0
    1.0128   -4.5993    0.7775 H   0  0  0  0  0  0  0  0  0  0  0  0
   -6.1780   -2.8733   -5.7304 H   0  0  0  0  0  0  0  0  0  0  0  0
   -6.6067   -2.9342   -4.0085 H   0  0  0  0  0  0  0  0  0  0  0  0
   -6.7840   -1.4268   -4.9323 H   0  0  0  0  0  0  0  0  0  0  0  0
   -2.1879   -9.5218    1.5421 H   0  0  0  0  0  0  0  0  0  0  0  0
   -2.4610   -9.4885   -0.2112 H   0  0  0  0  0  0  0  0  0  0  0  0
   -0.8464   -9.8508    0.4288 H   0  0  0  0  0  0  0  0  0  0  0  0
   -1.7572   -4.2223   -1.5394 H   0  0  0  0  0  0  0  0  0  0  0  0
   -2.8277   -0.1122   -3.4568 H   0  0  0  0  0  0  0  0  0  0  0  0
   -3.3960   -0.2384   -1.7770 H   0  0  0  0  0  0  0  0  0  0  0  0
   -1.9781   -2.2022   -4.6041 H   0  0  0  0  0  0  0  0  0  0  0  0
   -1.9532   -3.7323   -3.7293 H   0  0  0  0  0  0  0  0  0  0  0  0
   -5.3144   -0.1877   -3.3586 H   0  0  0  0  0  0  0  0  0  0  0  0
   -5.2602   -1.6794   -2.4066 H   0  0  0  0  0  0  0  0  0  0  0  0
   -4.3852   -3.8191   -3.5931 H   0  0  0  0  0  0  0  0  0  0  0  0
   -3.8689   -3.6482   -5.2771 H   0  0  0  0  0  0  0  0  0  0  0  0
    2.7482   -1.6043   -1.2530 H   0  0  0  0  0  0  0  0  0  0  0  0
    2.1412    1.5069    1.6691 H   0  0  0  0  0  0  0  0  0  0  0  0
    5.1533   -1.5500   -0.8519 H   0  0  0  0  0  0  0  0  0  0  0  0
    4.5697    1.5883    2.0861 H   0  0  0  0  0  0  0  0  0  0  0  0
    0.7041   -7.5092    0.0679 H   0  0  0  0  0  0  0  0  0  0  0  0
   -3.3650   -6.9907    1.0020 H   0  0  0  0  0  0  0  0  0  0  0  0
  1 11  1  0  0  0  0
  1 20  1  0  0  0  0
  1 31  1  0  0  0  0
  2 12  1  0  0  0  0
  2 26  1  0  0  0  0
  2 32  1  0  0  0  0
  3 19  1  0  0  0  0
  3 33  1  0  0  0  0
  3 34  1  0  0  0  0
  3 35  1  0  0  0  0
  4 30  1  0  0  0  0
  4 36  1  0  0  0  0
  4 37  1  0  0  0  0
  4 38  1  0  0  0  0
  5  6  1  0  0  0  0
  5  7  2  0  0  0  0
  5 25  1  0  0  0  0
  8  9  2  0  0  0  0
  8 10  1  0  0  0  0
  8 14  1  0  0  0  0
  9 11  1  0  0  0  0
 10 12  2  0  0  0  0
 10 39  1  0  0  0  0
 11 13  2  0  0  0  0
 12 13  1  0  0  0  0
 14 15  1  0  0  0  0
 14 16  1  0  0  0  0
 15 17  1  0  0  0  0
 15 40  1  0  0  0  0
 15 41  1  0  0  0  0
 16 18  1  0  0  0  0
 16 42  1  0  0  0  0
 16 43  1  0  0  0  0
 17 19  1  0  0  0  0
 17 44  1  0  0  0  0
 17 45  1  0  0  0  0
 18 19  1  0  0  0  0
 18 46  1  0  0  0  0
 18 47  1  0  0  0  0
 20 21  2  0  0  0  0
 20 22  1  0  0  0  0
 21 23  1  0  0  0  0
 21 48  1  0  0  0  0
 22 24  2  0  0  0  0
 22 49  1  0  0  0  0
 23 25  2  0  0  0  0
 23 50  1  0  0  0  0
 24 25  1  0  0  0  0
 24 51  1  0  0  0  0
 26 27  2  0  0  0  0
 26 28  1  0  0  0  0
 27 29  1  0  0  0  0
 28 30  2  0  0  0  0
 28 52  1  0  0  0  0
 29 30  1  0  0  0  0
 29 53  1  0  0  0  0
M  CHG  2   5   1   6  -1
M  END
>  <Mol_ID>
6250

>  <Formula>
C19H23N9O2

>  <MolWeight>
409.44502

>  <Cat>
E0338

>  <Name>
AKI603

>  <Target>
Aurora Kinase

>  <Form>
free base

>  <CAS>
1432515-73-5

>  <URL>
http://www.selleckchem.com/products/aki603.html

$$$$
