AKR1C1-IN-1
 OpenBabel08302521303D

 26 27  0  0  0  0  0  0  0  0999 V2000
   -1.5971   -0.1584   -0.0205 Br  0  0  0  0  0  0  0  0  0  0  0  0
    0.3513    2.2000   -0.0066 O   0  0  0  0  0  0  0  0  0  0  0  0
    4.5567    2.1838    0.0133 O   0  0  0  0  0  0  0  0  0  0  0  0
    2.6257    3.3196   -0.0045 O   0  0  0  0  0  0  0  0  0  0  0  0
    2.3490   -1.5067   -0.0313 C   0  0  0  0  0  0  0  0  0  0  0  0
    3.0290   -2.8278    0.0053 C   0  0  0  0  0  0  0  0  0  0  0  0
    3.0813   -0.2992   -0.0545 C   0  0  0  0  0  0  0  0  0  0  0  0
    2.4505    0.9595   -0.0333 C   0  0  0  0  0  0  0  0  0  0  0  0
    0.9482   -1.4103   -0.0188 C   0  0  0  0  0  0  0  0  0  0  0  0
    1.0450    1.0135   -0.0230 C   0  0  0  0  0  0  0  0  0  0  0  0
    0.3034   -0.1705   -0.0235 C   0  0  0  0  0  0  0  0  0  0  0  0
    4.2563   -3.0061    0.6725 C   0  0  0  0  0  0  0  0  0  0  0  0
    2.4629   -3.9648   -0.6012 C   0  0  0  0  0  0  0  0  0  0  0  0
    4.8826   -4.2556    0.7356 C   0  0  0  0  0  0  0  0  0  0  0  0
    3.0768   -5.2197   -0.5231 C   0  0  0  0  0  0  0  0  0  0  0  0
    4.2871   -5.3644    0.1455 C   0  0  0  0  0  0  0  0  0  0  0  0
    3.2145    2.2444   -0.0129 C   0  0  0  0  0  0  0  0  0  0  0  0
    0.9846    2.9525    0.0046 H   0  0  0  0  0  0  0  0  0  0  0  0
    4.9932    1.3180    0.0145 H   0  0  0  0  0  0  0  0  0  0  0  0
    4.1609   -0.3791   -0.0978 H   0  0  0  0  0  0  0  0  0  0  0  0
    0.3390   -2.3116    0.0134 H   0  0  0  0  0  0  0  0  0  0  0  0
    4.7410   -2.1769    1.1820 H   0  0  0  0  0  0  0  0  0  0  0  0
    1.5255   -3.8948   -1.1497 H   0  0  0  0  0  0  0  0  0  0  0  0
    5.8293   -4.3626    1.2596 H   0  0  0  0  0  0  0  0  0  0  0  0
    2.6038   -6.0837   -0.9837 H   0  0  0  0  0  0  0  0  0  0  0  0
    4.7626   -6.3395    0.2100 H   0  0  0  0  0  0  0  0  0  0  0  0
  1 11  1  0  0  0  0
  2 10  1  0  0  0  0
  2 18  1  0  0  0  0
  3 17  1  0  0  0  0
  3 19  1  0  0  0  0
  4 17  2  0  0  0  0
  5  6  1  0  0  0  0
  5  7  2  0  0  0  0
  5  9  1  0  0  0  0
  6 12  2  0  0  0  0
  6 13  1  0  0  0  0
  7  8  1  0  0  0  0
  7 20  1  0  0  0  0
  8 10  2  0  0  0  0
  8 17  1  0  0  0  0
  9 11  2  0  0  0  0
  9 21  1  0  0  0  0
 10 11  1  0  0  0  0
 12 14  1  0  0  0  0
 12 22  1  0  0  0  0
 13 15  2  0  0  0  0
 13 23  1  0  0  0  0
 14 16  2  0  0  0  0
 14 24  1  0  0  0  0
 15 16  1  0  0  0  0
 15 25  1  0  0  0  0
 16 26  1  0  0  0  0
M  END
>  <Mol_ID>
5627

>  <Formula>
C13H9BrO3

>  <MolWeight>
293.11276

>  <Cat>
S0764

>  <Name>
AKR1C1-IN-1

>  <Synonyms>
N/A

>  <Target>
AKR1C,Dehydrogenase

>  <Form>
Free Base

>  <CAS>
4906-68-7

>  <URL>
http://www.selleckchem.com/products/akr1c1-in-1.html

$$$$
