Ala-Gln
 OpenBabel08302521383D

 30 29  0  0  0  0  0  0  0  0999 V2000
   -0.8493    1.9495    0.2395 C   0  0  0  0  0  0  0  0  0  0  0  0
    0.0161    0.9650    1.0334 C   0  0  2  0  0  0  0  0  0  0  0  0
    0.8851    0.0978    0.1132 C   0  0  0  0  0  0  0  0  0  0  0  0
    0.0921   -0.8852   -0.7506 C   0  0  0  0  0  0  0  0  0  0  0  0
    0.9921   -1.7266   -1.6345 C   0  0  0  0  0  0  0  0  0  0  0  0
   -0.4143    2.7151   -0.6152 O   0  0  0  0  0  0  0  0  0  0  0  0
   -2.1626    1.9062    0.5655 O   0  0  0  0  0  0  0  0  0  0  0  0
    1.0095   -2.9502   -1.5843 O   0  0  0  0  0  0  0  0  0  0  0  0
   -0.7606    0.1666    1.9830 N   0  0  0  0  0  0  0  0  0  0  0  0
   -0.2213   -0.1441    3.2234 C   0  0  0  0  0  0  0  0  0  0  0  0
   -1.1212   -0.9944    4.1293 C   0  0  1  0  0  0  0  0  0  0  0  0
    0.9036    0.2097    3.5644 O   0  0  0  0  0  0  0  0  0  0  0  0
   -2.5441   -0.6706    3.8679 N   0  0  0  0  0  0  0  0  0  0  0  0
    1.7793   -1.0518   -2.5165 N   0  0  0  0  0  0  0  0  0  0  0  0
   -0.8665   -2.4698    3.8676 C   0  0  0  0  0  0  0  0  0  0  0  0
    0.6810    1.6075    1.6277 H   0  0  0  0  0  0  0  0  0  0  0  0
    1.4863    0.7525   -0.5296 H   0  0  0  0  0  0  0  0  0  0  0  0
    1.5994   -0.4707    0.7228 H   0  0  0  0  0  0  0  0  0  0  0  0
   -0.4612   -1.5796   -0.1080 H   0  0  0  0  0  0  0  0  0  0  0  0
   -0.6405   -0.3722   -1.3837 H   0  0  0  0  0  0  0  0  0  0  0  0
   -2.3049    1.3148    1.3331 H   0  0  0  0  0  0  0  0  0  0  0  0
   -1.5143   -0.4499    1.6829 H   0  0  0  0  0  0  0  0  0  0  0  0
   -0.8818   -0.7453    5.1712 H   0  0  0  0  0  0  0  0  0  0  0  0
   -3.1159   -1.2164    4.5169 H   0  0  0  0  0  0  0  0  0  0  0  0
   -2.7003    0.3029    4.1380 H   0  0  0  0  0  0  0  0  0  0  0  0
    1.6363   -0.0788   -2.7529 H   0  0  0  0  0  0  0  0  0  0  0  0
    2.3606   -1.6080   -3.1327 H   0  0  0  0  0  0  0  0  0  0  0  0
    0.1900   -2.7130    4.0296 H   0  0  0  0  0  0  0  0  0  0  0  0
   -1.4626   -3.1008    4.5360 H   0  0  0  0  0  0  0  0  0  0  0  0
   -1.1075   -2.7391    2.8335 H   0  0  0  0  0  0  0  0  0  0  0  0
  1  6  2  0  0  0  0
  1  7  1  0  0  0  0
  2  9  1  0  0  0  0
  2 16  1  1  0  0  0
  2  3  1  0  0  0  0
  2  1  1  0  0  0  0
  3  4  1  0  0  0  0
  3 17  1  0  0  0  0
  3 18  1  0  0  0  0
  4  5  1  0  0  0  0
  4 19  1  0  0  0  0
  4 20  1  0  0  0  0
  5  8  2  0  0  0  0
  5 14  1  0  0  0  0
  7 21  1  0  0  0  0
  9 10  1  0  0  0  0
  9 22  1  0  0  0  0
 10 11  1  0  0  0  0
 10 12  2  0  0  0  0
 11 13  1  0  0  0  0
 11 15  1  0  0  0  0
 11 23  1  1  0  0  0
 13 24  1  0  0  0  0
 13 25  1  0  0  0  0
 14 26  1  0  0  0  0
 14 27  1  0  0  0  0
 15 28  1  0  0  0  0
 15 29  1  0  0  0  0
 15 30  1  0  0  0  0
M  END
>  <Mol_ID>
7886

>  <Formula>
C8H15N3O4

>  <MolWeight>
217.2224

>  <Cat>
S5801

>  <Name>
Ala-Gln

>  <Synonyms>
l-alanyl-l-glutamine

>  <Target>
Others

>  <Form>
Free Base

>  <CAS>
39537-23-0

>  <URL>
http://www.selleckchem.com/products/ala-gln.html

$$$$
