ALESSE (ethinyl estradiol).cdx
 OpenBabel08302520433D

 46 49  0  0  0  0  0  0  0  0999 V2000
    0.0683    1.1047   -1.5054 C   0  0  0  0  0  0  0  0  0  0  0  0
   -1.2566    1.4281   -1.2453 C   0  0  0  0  0  0  0  0  0  0  0  0
   -2.0760    0.5766   -0.5176 C   0  0  0  0  0  0  0  0  0  0  0  0
   -1.6053   -0.6940   -0.1668 C   0  0  0  0  0  0  0  0  0  0  0  0
   -0.2427   -1.0039   -0.3393 C   0  0  0  0  0  0  0  0  0  0  0  0
    0.5873   -0.0854   -1.0036 C   0  0  0  0  0  0  0  0  0  0  0  0
   -2.6061   -1.7459    0.2423 C   0  0  0  0  0  0  0  0  0  0  0  0
   -2.1479   -3.1402   -0.2032 C   0  0  0  0  0  0  0  0  0  0  0  0
   -0.7738   -3.4134    0.3943 C   0  0  2  0  0  0  0  0  0  0  0  0
    0.2873   -2.3958   -0.0957 C   0  0  2  0  0  0  0  0  0  0  0  0
   -0.1746   -4.7811    0.0666 C   0  0  1  0  0  0  0  0  0  0  0  0
    1.1017   -5.0639    0.9066 C   0  0  2  0  0  0  0  0  0  0  0  0
    2.1473   -3.9514    0.6226 C   0  0  0  0  0  0  0  0  0  0  0  0
    1.5435   -2.5377    0.7952 C   0  0  0  0  0  0  0  0  0  0  0  0
   -1.0097   -6.0495    0.1812 C   0  0  0  0  0  0  0  0  0  0  0  0
    0.0205   -7.1731    0.4092 C   0  0  0  0  0  0  0  0  0  0  0  0
    1.4228   -6.5022    0.4065 C   0  0  2  0  0  0  0  0  0  0  0  0
   -1.8227    2.5462   -1.7817 O   0  0  0  0  0  0  0  0  0  0  0  0
    0.8365   -5.0912    2.4449 C   0  0  0  0  0  0  0  0  0  0  0  0
    2.3050   -7.1731    1.3027 O   0  0  0  0  0  0  0  0  0  0  0  0
    2.0031   -6.5705   -0.9454 C   0  0  0  0  0  0  0  0  0  0  0  0
    2.4264   -6.6558   -2.0747 C   0  0  0  0  0  0  0  0  0  0  0  0
    0.6955    1.7427   -2.1171 H   0  0  0  0  0  0  0  0  0  0  0  0
   -3.1097    0.8554   -0.3360 H   0  0  0  0  0  0  0  0  0  0  0  0
    1.6203   -0.3449   -1.2282 H   0  0  0  0  0  0  0  0  0  0  0  0
   -3.5706   -1.5417   -0.2387 H   0  0  0  0  0  0  0  0  0  0  0  0
   -2.7617   -1.7083    1.3261 H   0  0  0  0  0  0  0  0  0  0  0  0
   -2.1116   -3.2040   -1.2980 H   0  0  0  0  0  0  0  0  0  0  0  0
   -2.8754   -3.8820    0.1457 H   0  0  0  0  0  0  0  0  0  0  0  0
   -0.9056   -3.2941    1.4744 H   0  0  0  0  0  0  0  0  0  0  0  0
    0.5911   -2.7040   -1.1082 H   0  0  0  0  0  0  0  0  0  0  0  0
    0.1094   -4.7403   -0.9965 H   0  0  0  0  0  0  0  0  0  0  0  0
    3.0271   -4.0681    1.2660 H   0  0  0  0  0  0  0  0  0  0  0  0
    2.5166   -4.0234   -0.4093 H   0  0  0  0  0  0  0  0  0  0  0  0
    2.3061   -1.7911    0.5414 H   0  0  0  0  0  0  0  0  0  0  0  0
    1.2852   -2.3599    1.8495 H   0  0  0  0  0  0  0  0  0  0  0  0
   -1.5711   -6.2194   -0.7454 H   0  0  0  0  0  0  0  0  0  0  0  0
   -1.7284   -6.0000    1.0050 H   0  0  0  0  0  0  0  0  0  0  0  0
   -0.0699   -7.9469   -0.3634 H   0  0  0  0  0  0  0  0  0  0  0  0
   -0.1861   -7.6687    1.3639 H   0  0  0  0  0  0  0  0  0  0  0  0
   -1.3420    2.7431   -2.6018 H   0  0  0  0  0  0  0  0  0  0  0  0
    0.6558   -6.1019    2.8280 H   0  0  0  0  0  0  0  0  0  0  0  0
    1.6977   -4.7050    3.0027 H   0  0  0  0  0  0  0  0  0  0  0  0
   -0.0281   -4.5030    2.7514 H   0  0  0  0  0  0  0  0  0  0  0  0
    2.4266   -8.0759    0.9518 H   0  0  0  0  0  0  0  0  0  0  0  0
    2.7719   -6.7363   -3.0742 H   0  0  0  0  0  0  0  0  0  0  0  0
  1  2  2  0  0  0  0
  1 23  1  0  0  0  0
  2  3  1  0  0  0  0
  2 18  1  0  0  0  0
  3  4  2  0  0  0  0
  3 24  1  0  0  0  0
  4  5  1  0  0  0  0
  4  7  1  0  0  0  0
  5  6  2  0  0  0  0
  6  1  1  0  0  0  0
  6 25  1  0  0  0  0
  7  8  1  0  0  0  0
  7 26  1  0  0  0  0
  7 27  1  0  0  0  0
  8 28  1  0  0  0  0
  8 29  1  0  0  0  0
  9  8  1  0  0  0  0
  9 10  1  0  0  0  0
  9 11  1  0  0  0  0
  9 30  1  1  0  0  0
 10  5  1  0  0  0  0
 10 14  1  0  0  0  0
 10 31  1  6  0  0  0
 11 12  1  0  0  0  0
 11 15  1  0  0  0  0
 11 32  1  6  0  0  0
 12 13  1  0  0  0  0
 12 19  1  1  0  0  0
 13 14  1  0  0  0  0
 13 33  1  0  0  0  0
 13 34  1  0  0  0  0
 14 35  1  0  0  0  0
 14 36  1  0  0  0  0
 15 16  1  0  0  0  0
 15 37  1  0  0  0  0
 15 38  1  0  0  0  0
 16 17  1  0  0  0  0
 16 39  1  0  0  0  0
 16 40  1  0  0  0  0
 17 12  1  0  0  0  0
 17 20  1  0  0  0  0
 17 21  1  6  0  0  0
 18 41  1  0  0  0  0
 19 42  1  0  0  0  0
 19 43  1  0  0  0  0
 19 44  1  0  0  0  0
 20 45  1  0  0  0  0
 21 22  3  0  0  0  0
 22 46  1  0  0  0  0
M  END
>  <Mol_ID>
355

>  <Formula>
C20H24O2

>  <MolWeight>
296.40336

>  <Cat>
S1625

>  <Name>
Ethinyl Estradiol

>  <Synonyms>
N/A

>  <Target>
Estrogen/progestogen Receptor

>  <Form>
free base

>  <CAS>
57-63-6

>  <URL>
http://selleckchem.com/products/Ethinyl-Estradiol.html

$$$$
