Alfuzosin HCl.cdx
 OpenBabel08302519583D

 55 57  0  0  0  0  0  0  0  0999 V2000
   -2.2988    1.1798    0.5141 C   0  0  0  0  0  0  0  0  0  0  0  0
   -2.5116   -0.1128    1.0181 C   0  0  0  0  0  0  0  0  0  0  0  0
   -1.4718   -1.0542    0.9764 C   0  0  0  0  0  0  0  0  0  0  0  0
   -0.2304   -0.7611    0.4283 C   0  0  0  0  0  0  0  0  0  0  0  0
   -0.0120    0.5268   -0.0498 C   0  0  0  0  0  0  0  0  0  0  0  0
   -1.0446    1.4933   -0.0088 C   0  0  0  0  0  0  0  0  0  0  0  0
    0.7101   -1.7153    0.3800 N   0  0  0  0  0  0  0  0  0  0  0  0
    1.9188   -1.3970   -0.0961 C   0  0  0  0  0  0  0  0  0  0  0  0
    2.2280   -0.1693   -0.5392 N   0  0  0  0  0  0  0  0  0  0  0  0
    1.2691    0.7612   -0.5377 C   0  0  0  0  0  0  0  0  0  0  0  0
   -3.3511    2.0572    0.5662 O   0  0  0  0  0  0  0  0  0  0  0  0
   -3.1632    3.3364   -0.0306 C   0  0  0  0  0  0  0  0  0  0  0  0
   -3.7437   -0.3686    1.5717 O   0  0  0  0  0  0  0  0  0  0  0  0
   -4.1370   -1.7358    1.6332 C   0  0  0  0  0  0  0  0  0  0  0  0
    1.6607    2.0120   -1.0325 N   0  0  0  0  0  0  0  0  0  0  0  0
    2.8958   -2.3666   -0.1906 N   0  0  0  0  0  0  0  0  0  0  0  0
    2.5653   -3.7800   -0.1004 C   0  0  0  0  0  0  0  0  0  0  0  0
    1.7639   -4.2610   -1.3188 C   0  0  0  0  0  0  0  0  0  0  0  0
    2.4664   -3.9679   -2.6425 C   0  0  0  0  0  0  0  0  0  0  0  0
    1.6914   -4.4403   -3.7733 N   0  0  0  0  0  0  0  0  0  0  0  0
    1.8015   -5.7085   -4.2891 C   0  0  0  0  0  0  0  0  0  0  0  0
    0.8706   -5.9710   -5.4876 C   0  0  3  0  0  0  0  0  0  0  0  0
    4.2556   -1.9141    0.0182 C   0  0  0  0  0  0  0  0  0  0  0  0
    2.5712   -6.5586   -3.8530 O   0  0  0  0  0  0  0  0  0  0  0  0
    1.6719   -6.3702   -6.7182 C   0  0  0  0  0  0  0  0  0  0  0  0
    0.8644   -5.7966   -7.8535 C   0  0  0  0  0  0  0  0  0  0  0  0
    0.2996   -4.5379   -7.2408 C   0  0  0  0  0  0  0  0  0  0  0  0
    0.0854   -4.8174   -5.8518 O   0  0  0  0  0  0  0  0  0  0  0  0
   -1.5960   -2.0474    1.3946 H   0  0  0  0  0  0  0  0  0  0  0  0
   -0.8311    2.4865   -0.3865 H   0  0  0  0  0  0  0  0  0  0  0  0
   -2.3797    3.9015    0.4856 H   0  0  0  0  0  0  0  0  0  0  0  0
   -2.9428    3.2454   -1.1002 H   0  0  0  0  0  0  0  0  0  0  0  0
   -4.0958    3.8996    0.0682 H   0  0  0  0  0  0  0  0  0  0  0  0
   -4.1466   -2.1823    0.6332 H   0  0  0  0  0  0  0  0  0  0  0  0
   -3.5032   -2.3105    2.3157 H   0  0  0  0  0  0  0  0  0  0  0  0
   -5.1550   -1.7765    2.0316 H   0  0  0  0  0  0  0  0  0  0  0  0
    1.0339    2.3400   -1.7570 H   0  0  0  0  0  0  0  0  0  0  0  0
    2.6101    1.9003   -1.3799 H   0  0  0  0  0  0  0  0  0  0  0  0
    3.4848   -4.3787   -0.0515 H   0  0  0  0  0  0  0  0  0  0  0  0
    2.0159   -3.9990    0.8229 H   0  0  0  0  0  0  0  0  0  0  0  0
    1.5957   -5.3401   -1.2243 H   0  0  0  0  0  0  0  0  0  0  0  0
    0.7689   -3.8005   -1.3289 H   0  0  0  0  0  0  0  0  0  0  0  0
    2.6040   -2.8925   -2.7902 H   0  0  0  0  0  0  0  0  0  0  0  0
    3.4526   -4.4450   -2.6635 H   0  0  0  0  0  0  0  0  0  0  0  0
    0.9603   -3.8516   -4.1664 H   0  0  0  0  0  0  0  0  0  0  0  0
    0.1649   -6.7588   -5.1994 H   0  0  0  0  0  0  0  0  0  0  0  0
    4.6195   -1.3757   -0.8634 H   0  0  0  0  0  0  0  0  0  0  0  0
    4.3304   -1.2541    0.8913 H   0  0  0  0  0  0  0  0  0  0  0  0
    4.9410   -2.7504    0.1931 H   0  0  0  0  0  0  0  0  0  0  0  0
    2.6708   -5.9169   -6.7037 H   0  0  0  0  0  0  0  0  0  0  0  0
    1.8055   -7.4538   -6.7962 H   0  0  0  0  0  0  0  0  0  0  0  0
    1.4536   -5.6036   -8.7546 H   0  0  0  0  0  0  0  0  0  0  0  0
    0.0527   -6.4848   -8.1159 H   0  0  0  0  0  0  0  0  0  0  0  0
    1.0086   -3.7064   -7.3107 H   0  0  0  0  0  0  0  0  0  0  0  0
   -0.6430   -4.2329   -7.7045 H   0  0  0  0  0  0  0  0  0  0  0  0
  1  2  2  0  0  0  0
  1 11  1  0  0  0  0
  2  3  1  0  0  0  0
  2 13  1  0  0  0  0
  3  4  2  0  0  0  0
  3 29  1  0  0  0  0
  4  5  1  0  0  0  0
  4  7  1  0  0  0  0
  5  6  2  0  0  0  0
  6  1  1  0  0  0  0
  6 30  1  0  0  0  0
  7  8  2  0  0  0  0
  8  9  1  0  0  0  0
  8 16  1  0  0  0  0
  9 10  2  0  0  0  0
 10  5  1  0  0  0  0
 10 15  1  0  0  0  0
 11 12  1  0  0  0  0
 12 31  1  0  0  0  0
 12 32  1  0  0  0  0
 12 33  1  0  0  0  0
 13 14  1  0  0  0  0
 14 34  1  0  0  0  0
 14 35  1  0  0  0  0
 14 36  1  0  0  0  0
 15 37  1  0  0  0  0
 15 38  1  0  0  0  0
 16 17  1  0  0  0  0
 16 23  1  0  0  0  0
 17 18  1  0  0  0  0
 17 39  1  0  0  0  0
 17 40  1  0  0  0  0
 18 19  1  0  0  0  0
 18 41  1  0  0  0  0
 18 42  1  0  0  0  0
 19 20  1  0  0  0  0
 19 43  1  0  0  0  0
 19 44  1  0  0  0  0
 20 21  1  0  0  0  0
 20 45  1  0  0  0  0
 21 22  1  0  0  0  0
 21 24  2  0  0  0  0
 22 25  1  0  0  0  0
 22 46  1  0  0  0  0
 23 47  1  0  0  0  0
 23 48  1  0  0  0  0
 23 49  1  0  0  0  0
 25 26  1  0  0  0  0
 25 50  1  0  0  0  0
 25 51  1  0  0  0  0
 26 27  1  0  0  0  0
 26 52  1  0  0  0  0
 26 53  1  0  0  0  0
 27 28  1  0  0  0  0
 27 54  1  0  0  0  0
 27 55  1  0  0  0  0
 28 22  1  0  0  0  0
M  END
>  <Mol_ID>
246

>  <Formula>
C19H28ClN5O4

>  <MolWeight>
425.90972

>  <Cat>
S1409

>  <Name>
Alfuzosin HCl

>  <Synonyms>
SL 77499 HCl

>  <Target>
Adrenergic Receptor

>  <Form>
Hydrochloride

>  <CAS>
81403-68-1

>  <URL>
http://selleckchem.com/products/Alfuzosin-hydrochloride.html

$$$$
