ALKBH5 inhibitor 2 (Cpd 20m)
 OpenBabel08302521373D

 41 43  0  0  0  0  0  0  0  0999 V2000
    0.5015    0.2919    2.1575 O   0  0  0  0  0  0  0  0  0  0  0  0
    0.5676    2.4364    1.4095 O   0  0  0  0  0  0  0  0  0  0  0  0
    3.2495    2.5156    1.5850 N   0  0  0  0  0  0  0  0  0  0  0  0
    5.9332    0.3646    2.4701 O   0  0  0  0  0  0  0  0  0  0  0  0
    4.5714    2.2577    1.8582 N   0  0  0  0  0  0  0  0  0  0  0  0
   10.7441    5.0969    2.2676 O   0  0  0  0  0  0  0  0  0  0  0  0
   10.2810    5.6986    1.0310 S   0  0  0  0  0  0  0  0  0  0  0  0
   10.2772    4.9495   -0.2076 O   0  0  0  0  0  0  0  0  0  0  0  0
   11.2729    7.0321    0.7747 N   0  0  0  0  0  0  0  0  0  0  0  0
    2.6051    1.3805    1.9251 C   0  0  0  0  0  0  0  0  0  0  0  0
    1.1452    1.2873    1.8522 C   0  0  0  0  0  0  0  0  0  0  0  0
   11.7313    7.8578    1.9014 C   0  0  0  0  0  0  0  0  0  0  0  0
   11.0607    7.9073   -0.3910 C   0  0  0  0  0  0  0  0  0  0  0  0
    4.7452    0.9248    2.2513 C   0  0  0  0  0  0  0  0  0  0  0  0
    8.6107    6.3916    1.2855 C   0  0  0  0  0  0  0  0  0  0  0  0
    3.4938    0.3659    2.3237 C   0  0  0  0  0  0  0  0  0  0  0  0
   10.9808    9.1561    1.6976 C   0  0  0  0  0  0  0  0  0  0  0  0
   10.9679    9.3229    0.1844 C   0  0  0  0  0  0  0  0  0  0  0  0
    5.5543    3.2909    1.7424 C   0  0  0  0  0  0  0  0  0  0  0  0
    7.5582    5.3029    1.4526 C   0  0  0  0  0  0  0  0  0  0  0  0
    6.2630    5.4785    0.9275 C   0  0  0  0  0  0  0  0  0  0  0  0
    5.2690    4.4887    1.0733 C   0  0  0  0  0  0  0  0  0  0  0  0
    6.8183    3.1407    2.3157 C   0  0  0  0  0  0  0  0  0  0  0  0
    7.7901    4.1399    2.1936 C   0  0  0  0  0  0  0  0  0  0  0  0
    1.3045    3.0709    1.2500 H   0  0  0  0  0  0  0  0  0  0  0  0
    5.7924   -0.5723    2.6980 H   0  0  0  0  0  0  0  0  0  0  0  0
   12.8132    8.0112    1.7942 H   0  0  0  0  0  0  0  0  0  0  0  0
   11.5536    7.4183    2.8845 H   0  0  0  0  0  0  0  0  0  0  0  0
   10.1679    7.6457   -0.9628 H   0  0  0  0  0  0  0  0  0  0  0  0
   11.9257    7.8234   -1.0590 H   0  0  0  0  0  0  0  0  0  0  0  0
    8.3860    6.9813    0.3908 H   0  0  0  0  0  0  0  0  0  0  0  0
    8.6289    7.0359    2.1676 H   0  0  0  0  0  0  0  0  0  0  0  0
    3.2423   -0.6447    2.6150 H   0  0  0  0  0  0  0  0  0  0  0  0
    9.9562    9.0576    2.0726 H   0  0  0  0  0  0  0  0  0  0  0  0
   11.4504    9.9985    2.2129 H   0  0  0  0  0  0  0  0  0  0  0  0
   10.0621    9.8368   -0.1523 H   0  0  0  0  0  0  0  0  0  0  0  0
   11.8267    9.9195   -0.1430 H   0  0  0  0  0  0  0  0  0  0  0  0
    6.0064    6.3899    0.3887 H   0  0  0  0  0  0  0  0  0  0  0  0
    4.2891    4.6618    0.6321 H   0  0  0  0  0  0  0  0  0  0  0  0
    7.0890    2.2660    2.8982 H   0  0  0  0  0  0  0  0  0  0  0  0
    8.7370    3.9589    2.6962 H   0  0  0  0  0  0  0  0  0  0  0  0
  1 11  2  0  0  0  0
  2 25  1  0  0  0  0
  4 14  1  0  0  0  0
  4 26  1  0  0  0  0
  5  3  1  0  0  0  0
  5 19  1  0  0  0  0
  7  9  1  0  0  0  0
  7  6  2  0  0  0  0
  8  7  2  0  0  0  0
  9 12  1  0  0  0  0
  9 13  1  0  0  0  0
 10  3  2  0  0  0  0
 10 11  1  0  0  0  0
 11  2  1  0  0  0  0
 12 17  1  0  0  0  0
 12 27  1  0  0  0  0
 12 28  1  0  0  0  0
 13 18  1  0  0  0  0
 13 29  1  0  0  0  0
 13 30  1  0  0  0  0
 14  5  1  0  0  0  0
 15  7  1  0  0  0  0
 15 31  1  0  0  0  0
 15 32  1  0  0  0  0
 16 14  2  0  0  0  0
 16 10  1  0  0  0  0
 16 33  1  0  0  0  0
 17 18  1  0  0  0  0
 17 34  1  0  0  0  0
 17 35  1  0  0  0  0
 18 36  1  0  0  0  0
 18 37  1  0  0  0  0
 19 23  1  0  0  0  0
 20 15  1  0  0  0  0
 20 24  1  0  0  0  0
 21 20  2  0  0  0  0
 21 38  1  0  0  0  0
 22 21  1  0  0  0  0
 22 19  2  0  0  0  0
 22 39  1  0  0  0  0
 23 24  2  0  0  0  0
 23 40  1  0  0  0  0
 24 41  1  0  0  0  0
M  END
>  <Mol_ID>
7560

>  <Formula>
C15H17N3O5S

>  <MolWeight>
351.37758

>  <Cat>
E1638

>  <Name>
ALKBH5 inhibitor 2 (Cpd 20m)

>  <Target>
Others

>  <Form>
free base

>  <URL>
https://www.selleckchem.com/products/alkbh5-inhibitor-2.html

$$$$
