ALLERNAZE (triamcinolone acetonide).cdx
 OpenBabel08302521032D

 62 66  0  0  0  0  0  0  0  0999 V2000
    1.2082    2.1000    0.0000 C   0  0  0  0  0  0  0  0  0  0  0  0
    1.2082    0.7000    0.0000 C   0  0  0  0  0  0  0  0  0  0  0  0
    2.4207    0.0000    0.0000 C   0  0  0  0  0  0  0  0  0  0  0  0
    3.6331    0.7000    0.0000 C   0  0  0  0  0  0  0  0  0  0  0  0
    3.6331    2.1000    0.0000 C   0  0  2  0  0  0  0  0  0  0  0  0
    2.4207    2.8000    0.0000 C   0  0  0  0  0  0  0  0  0  0  0  0
    4.8455    0.0000    0.0000 C   0  0  0  0  0  0  0  0  0  0  0  0
    6.0580    0.7000    0.0000 C   0  0  0  0  0  0  0  0  0  0  0  0
    6.0580    2.1000    0.0000 C   0  0  2  0  0  0  0  0  0  0  0  0
    4.8455    2.8000    0.0000 C   0  0  2  0  0  0  0  0  0  0  0  0
    7.2704    2.8000    0.0000 C   0  0  1  0  0  0  0  0  0  0  0  0
    7.2704    4.2000    0.0000 C   0  0  2  0  0  0  0  0  0  0  0  0
    6.0580    4.9000    0.0000 C   0  0  0  0  0  0  0  0  0  0  0  0
    4.8455    4.2000    0.0000 C   0  0  2  0  0  0  0  0  0  0  0  0
    8.6019    2.3674    0.0000 C   0  0  0  0  0  0  0  0  0  0  0  0
    9.4248    3.5000    0.0000 C   0  0  2  0  0  0  0  0  0  0  0  0
    8.6019    4.6326    0.0000 C   0  0  2  0  0  0  0  0  0  0  0  0
    0.0000    0.0024    0.0000 O   0  0  0  0  0  0  0  0  0  0  0  0
    3.6331    3.5000    0.0000 C   0  0  0  0  0  0  0  0  0  0  0  0
    3.6373    4.8976    0.0000 O   0  0  0  0  0  0  0  0  0  0  0  0
    7.2704    5.6000    0.0000 C   0  0  0  0  0  0  0  0  0  0  0  0
    8.6019    6.0326    0.0000 C   0  0  0  0  0  0  0  0  0  0  0  0
    4.8455    1.4000    0.0000 F   0  0  0  0  0  0  0  0  0  0  0  0
   10.7563    3.9326    0.0000 O   0  0  0  0  0  0  0  0  0  0  0  0
   10.7563    5.3326    0.0000 C   0  0  0  0  0  0  0  0  0  0  0  0
    9.4248    5.7652    0.0000 O   0  0  0  0  0  0  0  0  0  0  0  0
   11.4563    6.5451    0.0000 C   0  0  0  0  0  0  0  0  0  0  0  0
   12.1563    5.3326    0.0000 C   0  0  0  0  0  0  0  0  0  0  0  0
    9.3019    7.2451    0.0000 C   0  0  0  0  0  0  0  0  0  0  0  0
    9.3019    8.6451    0.0000 O   0  0  0  0  0  0  0  0  0  0  0  0
    7.6119    7.0226    0.0000 O   0  0  0  0  0  0  0  0  0  0  0  0
    0.3145    2.6160    0.0000 H   0  0  0  0  0  0  0  0  0  0  0  0
    2.4207   -1.0320    0.0000 H   0  0  0  0  0  0  0  0  0  0  0  0
    2.4207    3.8320    0.0000 H   0  0  0  0  0  0  0  0  0  0  0  0
    4.8455   -1.0700    0.0000 H   0  0  0  0  0  0  0  0  0  0  0  0
    5.7721   -0.5350    0.0000 H   0  0  0  0  0  0  0  0  0  0  0  0
    6.9846    0.1650    0.0000 H   0  0  0  0  0  0  0  0  0  0  0  0
    6.9847    1.2350    0.0000 H   0  0  0  0  0  0  0  0  0  0  0  0
    5.1314    1.5650    0.0000 H   0  0  0  0  0  0  0  0  0  0  0  0
    7.3823    1.7359    0.0000 H   0  0  0  0  0  0  0  0  0  0  0  0
    6.0580    5.9700    0.0000 H   0  0  0  0  0  0  0  0  0  0  0  0
    5.1314    5.4350    0.0000 H   0  0  0  0  0  0  0  0  0  0  0  0
    4.8455    5.2700    0.0000 H   0  0  0  0  0  0  0  0  0  0  0  0
    8.9326    1.3498    0.0000 H   0  0  0  0  0  0  0  0  0  0  0  0
    9.6587    2.2000    0.0000 H   0  0  0  0  0  0  0  0  0  0  0  0
    8.3548    3.5000    0.0000 H   0  0  0  0  0  0  0  0  0  0  0  0
    4.5597    4.0350    0.0000 H   0  0  0  0  0  0  0  0  0  0  0  0
    2.7065    4.0350    0.0000 H   0  0  0  0  0  0  0  0  0  0  0  0
    3.6331    4.5700    0.0000 H   0  0  0  0  0  0  0  0  0  0  0  0
    3.6373    5.8676    0.0000 H   0  0  0  0  0  0  0  0  0  0  0  0
    8.1970    6.1350    0.0000 H   0  0  0  0  0  0  0  0  0  0  0  0
    6.3438    6.1350    0.0000 H   0  0  0  0  0  0  0  0  0  0  0  0
    7.2704    6.6700    0.0000 H   0  0  0  0  0  0  0  0  0  0  0  0
   12.5263    6.5451    0.0000 H   0  0  0  0  0  0  0  0  0  0  0  0
   10.9213    7.4717    0.0000 H   0  0  0  0  0  0  0  0  0  0  0  0
   11.9913    7.4718    0.0000 H   0  0  0  0  0  0  0  0  0  0  0  0
   12.6913    4.4060    0.0000 H   0  0  0  0  0  0  0  0  0  0  0  0
   12.6913    6.2592    0.0000 H   0  0  0  0  0  0  0  0  0  0  0  0
   13.2263    5.3326    0.0000 H   0  0  0  0  0  0  0  0  0  0  0  0
   10.3354    6.9682    0.0000 H   0  0  0  0  0  0  0  0  0  0  0  0
   10.1508    7.8965    0.0000 H   0  0  0  0  0  0  0  0  0  0  0  0
   10.1419    9.1301    0.0000 H   0  0  0  0  0  0  0  0  0  0  0  0
  1  2  1  0  0  0  0
  1 32  1  0  0  0  0
  2  3  1  0  0  0  0
  2 18  2  0  0  0  0
  3  4  2  0  0  0  0
  3 33  1  0  0  0  0
  4  5  1  0  0  0  0
  4  7  1  0  0  0  0
  5  6  1  0  0  0  0
  5 19  1  1  0  0  0
  6  1  2  0  0  0  0
  6 34  1  0  0  0  0
  7  8  1  0  0  0  0
  7 35  1  0  0  0  0
  7 36  1  0  0  0  0
  8 37  1  0  0  0  0
  8 38  1  0  0  0  0
  9  8  1  0  0  0  0
  9 10  1  0  0  0  0
  9 11  1  0  0  0  0
  9 39  1  1  0  0  0
 10  5  1  0  0  0  0
 10 23  1  6  0  0  0
 11 12  1  0  0  0  0
 11 15  1  0  0  0  0
 11 40  1  6  0  0  0
 12 13  1  0  0  0  0
 12 21  1  1  0  0  0
 13 14  1  0  0  0  0
 13 41  1  0  0  0  0
 13 42  1  0  0  0  0
 14 10  1  0  0  0  0
 14 20  1  0  0  0  0
 14 43  1  6  0  0  0
 15 44  1  0  0  0  0
 15 45  1  0  0  0  0
 16 15  1  0  0  0  0
 16 17  1  0  0  0  0
 16 24  1  0  0  0  0
 16 46  1  1  0  0  0
 17 12  1  0  0  0  0
 17 22  1  1  0  0  0
 17 26  1  0  0  0  0
 19 47  1  0  0  0  0
 19 48  1  0  0  0  0
 19 49  1  0  0  0  0
 20 50  1  0  0  0  0
 21 51  1  0  0  0  0
 21 52  1  0  0  0  0
 21 53  1  0  0  0  0
 22 29  1  0  0  0  0
 22 31  2  0  0  0  0
 24 25  1  0  0  0  0
 25 26  1  0  0  0  0
 25 27  1  0  0  0  0
 25 28  1  0  0  0  0
 27 54  1  0  0  0  0
 27 55  1  0  0  0  0
 27 56  1  0  0  0  0
 28 57  1  0  0  0  0
 28 58  1  0  0  0  0
 28 59  1  0  0  0  0
 29 30  1  0  0  0  0
 29 60  1  0  0  0  0
 29 61  1  0  0  0  0
 30 62  1  0  0  0  0
M  END
>  <Mol_ID>
358

>  <Formula>
C24H31FO6

>  <MolWeight>
434.4977432

>  <Cat>
S1628

>  <Name>
Triamcinolone Acetonide

>  <Synonyms>
N/A

>  <Target>
Glucocorticoid Receptor

>  <Form>
free base

>  <CAS>
76-25-5

>  <URL>
http://selleckchem.com/products/Triamcinolone-Acetonide.html

$$$$
