Allyl Methyl Sulfide
 OpenBabel08302520383D

 13 12  0  0  0  0  0  0  0  0999 V2000
    0.9644    0.2034   -0.1142 C   0  0  0  0  0  0  0  0  0  0  0  0
    0.3467    0.7832    1.1191 C   0  0  0  0  0  0  0  0  0  0  0  0
    0.2437    0.9477   -1.6072 S   0  0  0  0  0  0  0  0  0  0  0  0
    1.0324    1.3785    2.1036 C   0  0  0  0  0  0  0  0  0  0  0  0
    0.8603    2.6411   -1.4304 C   0  0  0  0  0  0  0  0  0  0  0  0
    0.7545   -0.8715   -0.1424 H   0  0  0  0  0  0  0  0  0  0  0  0
    2.0526    0.3230   -0.1341 H   0  0  0  0  0  0  0  0  0  0  0  0
   -0.7348    0.6939    1.2141 H   0  0  0  0  0  0  0  0  0  0  0  0
    0.5200    1.7720    2.9765 H   0  0  0  0  0  0  0  0  0  0  0  0
    2.1130    1.4833    2.0680 H   0  0  0  0  0  0  0  0  0  0  0  0
    0.4139    3.1282   -0.5601 H   0  0  0  0  0  0  0  0  0  0  0  0
    1.9499    2.6479   -1.3424 H   0  0  0  0  0  0  0  0  0  0  0  0
    0.5823    3.2133   -2.3192 H   0  0  0  0  0  0  0  0  0  0  0  0
  1  2  1  0  0  0  0
  1  3  1  0  0  0  0
  1  6  1  0  0  0  0
  1  7  1  0  0  0  0
  2  4  2  0  0  0  0
  2  8  1  0  0  0  0
  3  5  1  0  0  0  0
  4  9  1  0  0  0  0
  4 10  1  0  0  0  0
  5 11  1  0  0  0  0
  5 12  1  0  0  0  0
  5 13  1  0  0  0  0
M  END
>  <Mol_ID>
3486

>  <Formula>
C4H8S

>  <MolWeight>
88.17132

>  <Cat>
S6204

>  <Name>
Allyl Methyl Sulfide

>  <Synonyms>
3-Methylthio-1-propene

>  <Target>
Others

>  <Form>
free base

>  <CAS>
10152-76-8

>  <URL>
http://www.selleck.cn/products/allyl-methyl-sulfide.html

$$$$
