Allylthiourea.cdx
 OpenBabel08302522033D

 15 14  0  0  0  0  0  0  0  0999 V2000
    0.7691    0.0614    0.0471 N   0  0  0  0  0  0  0  0  0  0  0  0
    0.2938   -1.1851    0.2445 C   0  0  0  0  0  0  0  0  0  0  0  0
    0.1717    1.3338    0.3868 C   0  0  0  0  0  0  0  0  0  0  0  0
   -0.9091   -1.3301    0.8280 N   0  0  0  0  0  0  0  0  0  0  0  0
    1.1624   -2.5126   -0.2424 S   0  0  0  0  0  0  0  0  0  0  0  0
    0.6181    1.7008    1.7662 C   0  0  0  0  0  0  0  0  0  0  0  0
    1.3175    2.7997    2.0746 C   0  0  0  0  0  0  0  0  0  0  0  0
    1.6915    0.0935   -0.3710 H   0  0  0  0  0  0  0  0  0  0  0  0
    0.5103    2.0623   -0.3578 H   0  0  0  0  0  0  0  0  0  0  0  0
   -0.9182    1.2728    0.3386 H   0  0  0  0  0  0  0  0  0  0  0  0
   -1.2271   -2.2703    1.0289 H   0  0  0  0  0  0  0  0  0  0  0  0
   -1.3767   -0.5757    1.3052 H   0  0  0  0  0  0  0  0  0  0  0  0
    0.3453    1.0162    2.5676 H   0  0  0  0  0  0  0  0  0  0  0  0
    1.6082    3.0018    3.1014 H   0  0  0  0  0  0  0  0  0  0  0  0
    1.6215    3.5189    1.3183 H   0  0  0  0  0  0  0  0  0  0  0  0
  1  2  1  0  0  0  0
  1  3  1  0  0  0  0
  1  8  1  0  0  0  0
  2  4  1  0  0  0  0
  2  5  2  0  0  0  0
  3  6  1  0  0  0  0
  3  9  1  0  0  0  0
  3 10  1  0  0  0  0
  4 11  1  0  0  0  0
  4 12  1  0  0  0  0
  6  7  2  0  0  0  0
  6 13  1  0  0  0  0
  7 14  1  0  0  0  0
  7 15  1  0  0  0  0
M  END
>  <Mol_ID>
1197

>  <Formula>
C4H8N2S

>  <MolWeight>
116.18472

>  <Cat>
S4017

>  <Name>
Allylthiourea

>  <Synonyms>
N/A

>  <Target>
ROS

>  <Form>
free base

>  <CAS>
109-57-9

>  <URL>
http://selleckchem.com/products/allylthiourea.html

$$$$
