Aloperine.cdx
 OpenBabel08302521383D

 41 44  0  0  0  0  0  0  0  0999 V2000
    0.8683   -0.0184   -0.1309 C   0  0  0  0  0  0  0  0  0  0  0  0
    0.2112   -1.2728   -0.7169 C   0  0  0  0  0  0  0  0  0  0  0  0
    0.8194   -2.5424   -0.1314 C   0  0  0  0  0  0  0  0  0  0  0  0
    2.3543   -2.5025   -0.1231 C   0  0  0  0  0  0  0  0  0  0  0  0
    2.9068   -1.2303   -0.7901 C   0  0  1  0  0  0  0  0  0  0  0  0
    2.3437   -0.0582   -0.0955 N   0  0  3  0  0  0  0  0  0  0  0  0
    4.4565   -1.2158   -0.8925 C   0  0  1  0  0  0  0  0  0  0  0  0
    4.8857    0.0968   -1.5721 C   0  0  0  0  0  0  0  0  0  0  0  0
    4.4616    1.2451   -0.6479 C   0  0  1  0  0  0  0  0  0  0  0  0
    2.9216    1.2215   -0.5271 C   0  0  0  0  0  0  0  0  0  0  0  0
    5.1834    1.1494    0.7294 C   0  0  1  0  0  0  0  0  0  0  0  0
    5.2374   -1.3411    0.3963 C   0  0  0  0  0  0  0  0  0  0  0  0
    5.6651   -0.2558    1.0702 C   0  0  0  0  0  0  0  0  0  0  0  0
    6.7699   -0.3659    2.0921 C   0  0  0  0  0  0  0  0  0  0  0  0
    6.8899    0.9080    2.9173 C   0  0  0  0  0  0  0  0  0  0  0  0
    6.9790    2.1599    2.0371 C   0  0  0  0  0  0  0  0  0  0  0  0
    6.3565    2.0421    0.7135 N   0  0  0  0  0  0  0  0  0  0  0  0
    0.5129    0.1223    0.8964 H   0  0  0  0  0  0  0  0  0  0  0  0
    0.4988    0.8419   -0.7051 H   0  0  0  0  0  0  0  0  0  0  0  0
   -0.8696   -1.2534   -0.5362 H   0  0  0  0  0  0  0  0  0  0  0  0
    0.3340   -1.2787   -1.8085 H   0  0  0  0  0  0  0  0  0  0  0  0
    0.4700   -3.4110   -0.7012 H   0  0  0  0  0  0  0  0  0  0  0  0
    0.4542   -2.6796    0.8937 H   0  0  0  0  0  0  0  0  0  0  0  0
    2.7401   -3.3933   -0.6327 H   0  0  0  0  0  0  0  0  0  0  0  0
    2.6974   -2.5709    0.9174 H   0  0  0  0  0  0  0  0  0  0  0  0
    2.5575   -1.2179   -1.8332 H   0  0  0  0  0  0  0  0  0  0  0  0
    4.7677   -2.0451   -1.5413 H   0  0  0  0  0  0  0  0  0  0  0  0
    4.4102    0.1924   -2.5544 H   0  0  0  0  0  0  0  0  0  0  0  0
    5.9707    0.1157   -1.7436 H   0  0  0  0  0  0  0  0  0  0  0  0
    4.7190    2.2008   -1.1351 H   0  0  0  0  0  0  0  0  0  0  0  0
    2.5135    1.4879   -1.5114 H   0  0  0  0  0  0  0  0  0  0  0  0
    2.6078    2.0110    0.1664 H   0  0  0  0  0  0  0  0  0  0  0  0
    4.5000    1.4994    1.5135 H   0  0  0  0  0  0  0  0  0  0  0  0
    5.5952   -2.3317    0.6646 H   0  0  0  0  0  0  0  0  0  0  0  0
    6.6277   -1.2311    2.7466 H   0  0  0  0  0  0  0  0  0  0  0  0
    7.7164   -0.5154    1.5524 H   0  0  0  0  0  0  0  0  0  0  0  0
    7.7756    0.8505    3.5613 H   0  0  0  0  0  0  0  0  0  0  0  0
    6.0194    0.9872    3.5810 H   0  0  0  0  0  0  0  0  0  0  0  0
    8.0309    2.4332    1.8924 H   0  0  0  0  0  0  0  0  0  0  0  0
    6.5235    3.0003    2.5742 H   0  0  0  0  0  0  0  0  0  0  0  0
    7.0297    1.6582    0.0551 H   0  0  0  0  0  0  0  0  0  0  0  0
  1  2  1  0  0  0  0
  1 18  1  0  0  0  0
  1 19  1  0  0  0  0
  2  3  1  0  0  0  0
  2 20  1  0  0  0  0
  2 21  1  0  0  0  0
  3  4  1  0  0  0  0
  3 22  1  0  0  0  0
  3 23  1  0  0  0  0
  4 24  1  0  0  0  0
  4 25  1  0  0  0  0
  5  4  1  0  0  0  0
  5  6  1  0  0  0  0
  5  7  1  0  0  0  0
  5 26  1  6  0  0  0
  6  1  1  0  0  0  0
  7  8  1  0  0  0  0
  7 12  1  0  0  0  0
  7 27  1  6  0  0  0
  8 28  1  0  0  0  0
  8 29  1  0  0  0  0
  9  8  1  0  0  0  0
  9 10  1  0  0  0  0
  9 11  1  0  0  0  0
  9 30  1  6  0  0  0
 10  6  1  0  0  0  0
 10 31  1  0  0  0  0
 10 32  1  0  0  0  0
 11 13  1  0  0  0  0
 11 17  1  0  0  0  0
 11 33  1  1  0  0  0
 12 34  1  0  0  0  0
 13 12  2  0  0  0  0
 13 14  1  0  0  0  0
 14 15  1  0  0  0  0
 14 35  1  0  0  0  0
 14 36  1  0  0  0  0
 15 16  1  0  0  0  0
 15 37  1  0  0  0  0
 15 38  1  0  0  0  0
 16 17  1  0  0  0  0
 16 39  1  0  0  0  0
 16 40  1  0  0  0  0
 17 41  1  0  0  0  0
M  END
>  <Mol_ID>
7715

>  <Formula>
C15H24N2

>  <MolWeight>
232.36446

>  <Cat>
S2420

>  <Name>
Aloperine

>  <Synonyms>
N/A

>  <Target>
Antiviral,Bacterial

>  <Form>
Free Base

>  <CAS>
56293-29-9

>  <URL>
http://selleckchem.com/products/aloperine.html

$$$$
