Ambroxol HCl.cdx
 OpenBabel08302521393D

 36 37  0  0  0  0  0  0  0  0999 V2000
    1.1030   -0.2757   -0.1314 C   0  0  1  0  0  0  0  0  0  0  0  0
    0.2852   -1.4961    0.2665 C   0  0  0  0  0  0  0  0  0  0  0  0
   -1.1642   -1.3580   -0.1936 C   0  0  0  0  0  0  0  0  0  0  0  0
   -1.8374   -0.0593    0.2958 C   0  0  1  0  0  0  0  0  0  0  0  0
   -0.9544    1.1703    0.0118 C   0  0  0  0  0  0  0  0  0  0  0  0
    0.4914    0.9853    0.4718 C   0  0  0  0  0  0  0  0  0  0  0  0
   -3.1560    0.1587   -0.3396 N   0  0  0  0  0  0  0  0  0  0  0  0
   -4.1159   -0.9006    0.0009 C   0  0  0  0  0  0  0  0  0  0  0  0
   -5.4619   -0.7823   -0.6932 C   0  0  0  0  0  0  0  0  0  0  0  0
   -5.5858   -0.6970   -2.0988 C   0  0  0  0  0  0  0  0  0  0  0  0
   -6.8606   -0.8900   -2.6766 C   0  0  0  0  0  0  0  0  0  0  0  0
   -7.9991   -1.0715   -1.8892 C   0  0  0  0  0  0  0  0  0  0  0  0
   -7.8738   -1.0721   -0.5060 C   0  0  0  0  0  0  0  0  0  0  0  0
   -6.6233   -0.9273    0.0909 C   0  0  0  0  0  0  0  0  0  0  0  0
   -9.3993   -1.3524    0.5759 Br  0  0  0  0  0  0  0  0  0  0  0  0
   -7.0825   -0.9295   -4.5670 Br  0  0  0  0  0  0  0  0  0  0  0  0
   -4.4276   -0.6692   -2.9041 N   0  0  0  0  0  0  0  0  0  0  0  0
    2.4472   -0.4299    0.3041 O   0  0  0  0  0  0  0  0  0  0  0  0
    1.1271   -0.1911   -1.2246 H   0  0  0  0  0  0  0  0  0  0  0  0
    0.7289   -2.4024   -0.1640 H   0  0  0  0  0  0  0  0  0  0  0  0
    0.3224   -1.6366    1.3548 H   0  0  0  0  0  0  0  0  0  0  0  0
   -1.1934   -1.3991   -1.2894 H   0  0  0  0  0  0  0  0  0  0  0  0
   -1.7092   -2.2353    0.1743 H   0  0  0  0  0  0  0  0  0  0  0  0
   -1.9705   -0.1243    1.3859 H   0  0  0  0  0  0  0  0  0  0  0  0
   -0.9497    1.3883   -1.0653 H   0  0  0  0  0  0  0  0  0  0  0  0
   -1.3716    2.0548    0.5095 H   0  0  0  0  0  0  0  0  0  0  0  0
    0.5322    0.9309    1.5677 H   0  0  0  0  0  0  0  0  0  0  0  0
    1.0951    1.8583    0.1950 H   0  0  0  0  0  0  0  0  0  0  0  0
   -3.5419    1.0486   -0.0202 H   0  0  0  0  0  0  0  0  0  0  0  0
   -3.7345   -1.8867   -0.2813 H   0  0  0  0  0  0  0  0  0  0  0  0
   -4.2589   -0.9074    1.0890 H   0  0  0  0  0  0  0  0  0  0  0  0
   -8.9678   -1.2375   -2.3524 H   0  0  0  0  0  0  0  0  0  0  0  0
   -6.5402   -0.9797    1.1752 H   0  0  0  0  0  0  0  0  0  0  0  0
   -4.5981   -0.2851   -3.8268 H   0  0  0  0  0  0  0  0  0  0  0  0
   -3.6552   -0.1999   -2.4190 H   0  0  0  0  0  0  0  0  0  0  0  0
    2.4769   -0.3105    1.2679 H   0  0  0  0  0  0  0  0  0  0  0  0
  1  2  1  0  0  0  0
  1  6  1  0  0  0  0
  1 18  1  0  0  0  0
  1 19  1  6  0  0  0
  2  3  1  0  0  0  0
  2 20  1  0  0  0  0
  2 21  1  0  0  0  0
  3  4  1  0  0  0  0
  3 22  1  0  0  0  0
  3 23  1  0  0  0  0
  4  5  1  0  0  0  0
  4  7  1  0  0  0  0
  4 24  1  1  0  0  0
  5  6  1  0  0  0  0
  5 25  1  0  0  0  0
  5 26  1  0  0  0  0
  6 27  1  0  0  0  0
  6 28  1  0  0  0  0
  7  8  1  0  0  0  0
  7 29  1  0  0  0  0
  8  9  1  0  0  0  0
  8 30  1  0  0  0  0
  8 31  1  0  0  0  0
  9 10  2  0  0  0  0
  9 14  1  0  0  0  0
 10 11  1  0  0  0  0
 10 17  1  0  0  0  0
 11 12  2  0  0  0  0
 11 16  1  0  0  0  0
 12 13  1  0  0  0  0
 12 32  1  0  0  0  0
 13 14  2  0  0  0  0
 13 15  1  0  0  0  0
 14 33  1  0  0  0  0
 17 34  1  0  0  0  0
 17 35  1  0  0  0  0
 18 36  1  0  0  0  0
M  END
>  <Mol_ID>
8198

>  <Formula>
C13H19Br2ClN2O

>  <MolWeight>
414.56376

>  <Cat>
S3064

>  <Name>
Ambroxol HCl

>  <Synonyms>
N/A

>  <Target>
Sodium Channel

>  <Form>
Hydrochloride

>  <CAS>
23828-92-4

>  <URL>
http://selleckchem.com/products/ambroxol-hcl.html

$$$$
