Amezinium (methylsulfate)
 OpenBabel08302520403D

 36 36  0  0  0  0  0  0  0  0999 V2000
    0.3233   -0.2967    1.2722 S   0  0  0  0  0  0  0  0  0  0  0  0
    0.2014    0.4497   -0.7664 O   0  0  0  0  0  0  0  0  0  0  0  0
    0.0418   -1.7332    1.2134 O   0  0  0  0  0  0  0  0  0  0  0  0
    0.4175    1.4895   -1.9508 C   0  0  0  0  0  0  0  0  0  0  0  0
   -1.4710    0.3134   -0.2758 N   0  3  0  0  0  0  0  0  0  0  0  0
   -2.8890    0.2042   -0.1243 C   0  0  0  0  0  0  0  0  0  0  0  0
   -0.6374    1.7667    0.2682 C   0  0  0  0  0  0  0  0  0  0  0  0
   -0.6297   -1.1334   -0.9626 N   0  0  0  0  0  0  0  0  0  0  0  0
   -3.5468    0.8567    0.9147 C   0  0  0  0  0  0  0  0  0  0  0  0
   -3.5651   -0.6643   -0.9806 C   0  0  0  0  0  0  0  0  0  0  0  0
    1.2005    1.7288    0.2218 C   0  0  0  0  0  0  0  0  0  0  0  0
   -1.3412    2.9310    0.4509 O   0  0  0  0  0  0  0  0  0  0  0  0
    1.1523   -1.0830   -0.9901 C   0  0  0  0  0  0  0  0  0  0  0  0
   -4.9107    0.6374    1.1009 C   0  0  0  0  0  0  0  0  0  0  0  0
   -4.9351   -0.8579   -0.8049 C   0  0  0  0  0  0  0  0  0  0  0  0
    2.0949    0.2929   -0.4117 C   0  0  0  0  0  0  0  0  0  0  0  0
   -0.7496    3.7892    1.4094 C   0  0  0  0  0  0  0  0  0  0  0  0
   -5.6040   -0.2122    0.2378 C   0  0  0  0  0  0  0  0  0  0  0  0
    3.5009    0.3101   -0.5039 N   0  0  0  0  0  0  0  0  0  0  0  0
   -0.7259    0.3766    2.0493 O   0  0  0  0  0  0  0  0  0  0  0  0
    1.6353   -0.0460    1.8722 O   0  5  0  0  0  0  0  0  0  0  0  0
   -0.1970    2.3934   -1.8533 H   0  0  0  0  0  0  0  0  0  0  0  0
    1.4666    1.7297   -2.1578 H   0  0  0  0  0  0  0  0  0  0  0  0
    0.0286    0.9617   -2.8297 H   0  0  0  0  0  0  0  0  0  0  0  0
   -3.0112    1.4571    1.6437 H   0  0  0  0  0  0  0  0  0  0  0  0
   -3.0442   -1.1899   -1.7751 H   0  0  0  0  0  0  0  0  0  0  0  0
    1.7670    2.6049    0.5213 H   0  0  0  0  0  0  0  0  0  0  0  0
    1.5796   -2.0008   -1.3765 H   0  0  0  0  0  0  0  0  0  0  0  0
   -5.4229    1.0989    1.9422 H   0  0  0  0  0  0  0  0  0  0  0  0
   -5.4788   -1.5308   -1.4639 H   0  0  0  0  0  0  0  0  0  0  0  0
   -0.6396    3.2895    2.3760 H   0  0  0  0  0  0  0  0  0  0  0  0
    0.2025    4.1946    1.0571 H   0  0  0  0  0  0  0  0  0  0  0  0
   -1.4317    4.6354    1.5442 H   0  0  0  0  0  0  0  0  0  0  0  0
   -6.6652   -0.3935    0.3965 H   0  0  0  0  0  0  0  0  0  0  0  0
    3.8447   -0.6156   -0.2355 H   0  0  0  0  0  0  0  0  0  0  0  0
    3.8741    0.9792    0.1692 H   0  0  0  0  0  0  0  0  0  0  0  0
  1  2  1  0  0  0  0
  1  3  2  0  0  0  0
  1 20  2  0  0  0  0
  1 21  1  0  0  0  0
  2  4  1  0  0  0  0
  4 22  1  0  0  0  0
  4 23  1  0  0  0  0
  4 24  1  0  0  0  0
  5  6  1  0  0  0  0
  5  7  2  0  0  0  0
  5  8  1  0  0  0  0
  6 10  1  0  0  0  0
  6  9  2  0  0  0  0
  7 11  1  0  0  0  0
  7 12  1  0  0  0  0
  8 13  2  0  0  0  0
  9 14  1  0  0  0  0
  9 25  1  0  0  0  0
 10 15  2  0  0  0  0
 10 26  1  0  0  0  0
 11 16  2  0  0  0  0
 11 27  1  0  0  0  0
 12 17  1  0  0  0  0
 13 16  1  0  0  0  0
 13 28  1  0  0  0  0
 14 18  2  0  0  0  0
 14 29  1  0  0  0  0
 15 18  1  0  0  0  0
 15 30  1  0  0  0  0
 16 19  1  0  0  0  0
 17 31  1  0  0  0  0
 17 32  1  0  0  0  0
 17 33  1  0  0  0  0
 18 34  1  0  0  0  0
 19 35  1  0  0  0  0
 19 36  1  0  0  0  0
M  CHG  2   5   1  21  -1
M  END
>  <Mol_ID>
3773

>  <Formula>
C12H15N3O5S

>  <MolWeight>
313.3296

>  <Cat>
S6462

>  <Name>
Amezinium (methylsulfate)

>  <Synonyms>
N/A

>  <Target>
MAO

>  <Form>
methylsulfate

>  <CAS>
30578-37-1

>  <URL>
http://www.selleck.cn/products/amezinium.html

$$$$
