Amfebutamone HCl.cdx
 OpenBabel08302521373D

 34 34  0  0  0  0  0  0  0  0999 V2000
    1.2470   -0.2131    0.0949 C   0  0  0  0  0  0  0  0  0  0  0  0
    0.3400   -1.1901   -0.3319 C   0  0  0  0  0  0  0  0  0  0  0  0
   -1.0327   -0.9125   -0.3476 C   0  0  0  0  0  0  0  0  0  0  0  0
   -1.4999    0.3307    0.0676 C   0  0  0  0  0  0  0  0  0  0  0  0
   -0.6028    1.3087    0.4906 C   0  0  0  0  0  0  0  0  0  0  0  0
    0.7685    1.0379    0.4971 C   0  0  0  0  0  0  0  0  0  0  0  0
    2.7279   -0.4215    0.1413 C   0  0  0  0  0  0  0  0  0  0  0  0
    3.4624    0.5693    0.1094 O   0  0  0  0  0  0  0  0  0  0  0  0
    3.3303   -1.8128    0.3268 C   0  0  3  0  0  0  0  0  0  0  0  0
    2.8625   -2.3473    1.6884 C   0  0  0  0  0  0  0  0  0  0  0  0
    3.0283   -2.7568   -0.7701 N   0  0  0  0  0  0  0  0  0  0  0  0
    3.6087   -2.4754   -2.1058 C   0  0  0  0  0  0  0  0  0  0  0  0
    5.1427   -2.3710   -2.0798 C   0  0  0  0  0  0  0  0  0  0  0  0
    3.2295   -3.6775   -2.9995 C   0  0  0  0  0  0  0  0  0  0  0  0
    3.0203   -1.2217   -2.7784 C   0  0  0  0  0  0  0  0  0  0  0  0
    0.6637   -2.1637   -0.6796 H   0  0  0  0  0  0  0  0  0  0  0  0
   -1.7316   -1.6697   -0.6936 H   0  0  0  0  0  0  0  0  0  0  0  0
   -2.5683    0.5439    0.0563 H   0  0  0  0  0  0  0  0  0  0  0  0
   -0.9630    2.2813    0.8119 H   0  0  0  0  0  0  0  0  0  0  0  0
    1.4604    1.8119    0.8250 H   0  0  0  0  0  0  0  0  0  0  0  0
    4.4174   -1.6892    0.4067 H   0  0  0  0  0  0  0  0  0  0  0  0
    1.8422   -2.7462    1.6527 H   0  0  0  0  0  0  0  0  0  0  0  0
    3.5219   -3.1448    2.0463 H   0  0  0  0  0  0  0  0  0  0  0  0
    2.8696   -1.5489    2.4413 H   0  0  0  0  0  0  0  0  0  0  0  0
    3.3337   -3.6869   -0.4764 H   0  0  0  0  0  0  0  0  0  0  0  0
    5.5939   -3.2059   -1.5303 H   0  0  0  0  0  0  0  0  0  0  0  0
    5.5555   -2.3904   -3.0958 H   0  0  0  0  0  0  0  0  0  0  0  0
    5.4793   -1.4377   -1.6200 H   0  0  0  0  0  0  0  0  0  0  0  0
    2.1423   -3.8092   -3.0521 H   0  0  0  0  0  0  0  0  0  0  0  0
    3.5892   -3.5312   -4.0254 H   0  0  0  0  0  0  0  0  0  0  0  0
    3.6672   -4.6112   -2.6298 H   0  0  0  0  0  0  0  0  0  0  0  0
    1.9269   -1.2669   -2.8231 H   0  0  0  0  0  0  0  0  0  0  0  0
    3.3102   -0.2978   -2.2748 H   0  0  0  0  0  0  0  0  0  0  0  0
    3.3807   -1.1231   -3.8086 H   0  0  0  0  0  0  0  0  0  0  0  0
  1  2  2  0  0  0  0
  1  7  1  0  0  0  0
  2  3  1  0  0  0  0
  2 16  1  0  0  0  0
  3  4  2  0  0  0  0
  3 17  1  0  0  0  0
  4  5  1  0  0  0  0
  4 18  1  0  0  0  0
  5  6  2  0  0  0  0
  5 19  1  0  0  0  0
  6  1  1  0  0  0  0
  6 20  1  0  0  0  0
  7  8  2  0  0  0  0
  7  9  1  0  0  0  0
  9 10  1  0  0  0  0
  9 11  1  0  0  0  0
  9 21  1  0  0  0  0
 10 22  1  0  0  0  0
 10 23  1  0  0  0  0
 10 24  1  0  0  0  0
 11 12  1  0  0  0  0
 11 25  1  0  0  0  0
 12 13  1  0  0  0  0
 12 14  1  0  0  0  0
 12 15  1  0  0  0  0
 13 26  1  0  0  0  0
 13 27  1  0  0  0  0
 13 28  1  0  0  0  0
 14 29  1  0  0  0  0
 14 30  1  0  0  0  0
 14 31  1  0  0  0  0
 15 32  1  0  0  0  0
 15 33  1  0  0  0  0
 15 34  1  0  0  0  0
M  END
>  <Mol_ID>
734

>  <Formula>
C13H19Cl2NO

>  <MolWeight>
276.20206

>  <Cat>
S2452

>  <Name>
Amfebutamone (Bupropion) HCl

>  <Synonyms>
Wellbutrin

>  <Target>
AChR,Dopamine Receptor

>  <Form>
Hydrochloride

>  <CAS>
31677-93-7

>  <URL>
http://selleckchem.com/products/Amfebutamone-hydrochloride(Bupropion).html

$$$$
