AMG337.cdx
 OpenBabel08302520413D

 56 60  0  0  0  0  0  0  0  0999 V2000
   -0.3750    2.7943    3.5822 O   0  0  0  0  0  0  0  0  0  0  0  0
    0.9935    2.7613    3.1885 C   0  0  0  0  0  0  0  0  0  0  0  0
    1.3845    1.3364    2.7942 C   0  0  0  0  0  0  0  0  0  0  0  0
    2.7555    1.3706    2.4226 O   0  0  0  0  0  0  0  0  0  0  0  0
    3.3088    0.2855    1.8254 C   0  0  0  0  0  0  0  0  0  0  0  0
    4.6871    0.2131    1.9775 C   0  0  0  0  0  0  0  0  0  0  0  0
    5.4022   -0.7642    1.3045 C   0  0  0  0  0  0  0  0  0  0  0  0
    4.7225   -1.6247    0.4594 C   0  0  0  0  0  0  0  0  0  0  0  0
    3.3710   -1.6334    0.3402 N   0  0  0  0  0  0  0  0  0  0  0  0
    2.6895   -0.6845    1.0425 C   0  0  0  0  0  0  0  0  0  0  0  0
   -0.7641    4.0920    4.0161 C   0  0  0  0  0  0  0  0  0  0  0  0
    6.8604   -0.9005    1.4889 C   0  0  0  0  0  0  0  0  0  0  0  0
    7.5287   -1.7570    0.6172 N   0  0  0  0  0  0  0  0  0  0  0  0
    6.8197   -2.5312   -0.3059 C   0  0  0  0  0  0  0  0  0  0  0  0
    5.4841   -2.5205   -0.3987 C   0  0  0  0  0  0  0  0  0  0  0  0
    7.4137   -0.2880    2.3986 O   0  0  0  0  0  0  0  0  0  0  0  0
    8.9128   -2.1757    0.9300 C   0  0  1  0  0  0  0  0  0  0  0  0
   10.0210   -1.0883    1.1435 C   0  0  0  0  0  0  0  0  0  0  0  0
    8.8930   -3.3253    1.9395 C   0  0  0  0  0  0  0  0  0  0  0  0
    9.8702    0.3238    1.0932 N   0  0  0  0  0  0  0  0  0  0  0  0
    9.8287    0.4883   -0.2944 C   0  0  0  0  0  0  0  0  0  0  0  0
   10.6803   -0.4081   -0.7793 N   0  0  0  0  0  0  0  0  0  0  0  0
   11.0496   -1.2145    0.2964 N   0  0  0  0  0  0  0  0  0  0  0  0
   10.3794    1.4408    1.8579 C   0  0  0  0  0  0  0  0  0  0  0  0
   10.3861    2.6836    1.2784 C   0  0  0  0  0  0  0  0  0  0  0  0
    9.5860    2.7985    0.0332 C   0  0  0  0  0  0  0  0  0  0  0  0
    9.3573    1.7382   -0.7317 C   0  0  0  0  0  0  0  0  0  0  0  0
    8.6307    1.8144   -1.8618 F   0  0  0  0  0  0  0  0  0  0  0  0
   11.1844    3.8413    1.6281 C   0  0  0  0  0  0  0  0  0  0  0  0
   11.4149    4.5358    2.8361 C   0  0  0  0  0  0  0  0  0  0  0  0
   12.2412    5.5829    2.6897 N   0  0  0  0  0  0  0  0  0  0  0  0
   12.5686    5.5592    1.3839 N   0  0  0  0  0  0  0  0  0  0  0  0
   11.9138    4.5734    0.6997 C   0  0  0  0  0  0  0  0  0  0  0  0
   13.5768    6.4572    0.8624 C   0  0  0  0  0  0  0  0  0  0  0  0
    1.1501    3.4339    2.3350 H   0  0  0  0  0  0  0  0  0  0  0  0
    1.6365    3.1157    4.0047 H   0  0  0  0  0  0  0  0  0  0  0  0
    1.2584    0.6663    3.6523 H   0  0  0  0  0  0  0  0  0  0  0  0
    0.7336    0.9945    1.9832 H   0  0  0  0  0  0  0  0  0  0  0  0
    5.2059    0.9337    2.6042 H   0  0  0  0  0  0  0  0  0  0  0  0
    1.6147   -0.7253    0.9054 H   0  0  0  0  0  0  0  0  0  0  0  0
   -1.8451    4.0882    4.1774 H   0  0  0  0  0  0  0  0  0  0  0  0
   -0.2704    4.3398    4.9609 H   0  0  0  0  0  0  0  0  0  0  0  0
   -0.5268    4.8462    3.2590 H   0  0  0  0  0  0  0  0  0  0  0  0
    7.3964   -3.2049   -0.9375 H   0  0  0  0  0  0  0  0  0  0  0  0
    4.9409   -3.1449   -1.0983 H   0  0  0  0  0  0  0  0  0  0  0  0
    9.2574   -2.6576   -0.0009 H   0  0  0  0  0  0  0  0  0  0  0  0
    8.2924   -4.1536    1.5301 H   0  0  0  0  0  0  0  0  0  0  0  0
    9.8902   -3.7280    2.1322 H   0  0  0  0  0  0  0  0  0  0  0  0
    8.4224   -3.0434    2.8846 H   0  0  0  0  0  0  0  0  0  0  0  0
   10.9274    1.1953    2.7601 H   0  0  0  0  0  0  0  0  0  0  0  0
    9.2112    3.7778   -0.2402 H   0  0  0  0  0  0  0  0  0  0  0  0
   11.0077    4.3527    3.8208 H   0  0  0  0  0  0  0  0  0  0  0  0
   12.0480    4.4596   -0.3676 H   0  0  0  0  0  0  0  0  0  0  0  0
   13.3074    7.4903    1.0983 H   0  0  0  0  0  0  0  0  0  0  0  0
   14.5349    6.2002    1.3232 H   0  0  0  0  0  0  0  0  0  0  0  0
   13.6529    6.3372   -0.2230 H   0  0  0  0  0  0  0  0  0  0  0  0
  1  2  1  0  0  0  0
  1 11  1  0  0  0  0
  2  3  1  0  0  0  0
  2 35  1  0  0  0  0
  2 36  1  0  0  0  0
  3  4  1  0  0  0  0
  3 37  1  0  0  0  0
  3 38  1  0  0  0  0
  4  5  1  0  0  0  0
  5  6  2  0  0  0  0
  6  7  1  0  0  0  0
  6 39  1  0  0  0  0
  7  8  2  0  0  0  0
  7 12  1  0  0  0  0
  8  9  1  0  0  0  0
  9 10  2  0  0  0  0
 10  5  1  0  0  0  0
 10 40  1  0  0  0  0
 11 41  1  0  0  0  0
 11 42  1  0  0  0  0
 11 43  1  0  0  0  0
 12 13  1  0  0  0  0
 12 16  2  0  0  0  0
 13 14  1  0  0  0  0
 13 17  1  0  0  0  0
 14 15  2  0  0  0  0
 14 44  1  0  0  0  0
 15  8  1  0  0  0  0
 15 45  1  0  0  0  0
 17 18  1  0  0  0  0
 17 19  1  0  0  0  0
 17 46  1  6  0  0  0
 18 20  1  0  0  0  0
 19 47  1  0  0  0  0
 19 48  1  0  0  0  0
 19 49  1  0  0  0  0
 20 21  1  0  0  0  0
 20 24  1  0  0  0  0
 21 22  2  0  0  0  0
 22 23  1  0  0  0  0
 23 18  2  0  0  0  0
 24 25  2  0  0  0  0
 24 50  1  0  0  0  0
 25 26  1  0  0  0  0
 25 29  1  0  0  0  0
 26 27  2  0  0  0  0
 26 51  1  0  0  0  0
 27 21  1  0  0  0  0
 27 28  1  0  0  0  0
 29 30  1  0  0  0  0
 30 31  2  0  0  0  0
 30 52  1  0  0  0  0
 31 32  1  0  0  0  0
 32 33  1  0  0  0  0
 32 34  1  0  0  0  0
 33 29  2  0  0  0  0
 33 53  1  0  0  0  0
 34 54  1  0  0  0  0
 34 55  1  0  0  0  0
 34 56  1  0  0  0  0
M  END
>  <Mol_ID>
3947

>  <Formula>
C23H22FN7O3

>  <MolWeight>
463.4642832

>  <Cat>
S8167

>  <Name>
AMG 337

>  <Synonyms>
N/A

>  <Target>
c-Met

>  <Form>
free base

>  <CAS>
1173699-31-4

>  <URL>
http://selleckchem.com/products/amg-337.html

$$$$
