AMINOCAPROIC ACID (aminocaproic acid).cdx
 OpenBabel08302521383D

 22 21  0  0  0  0  0  0  0  0999 V2000
    3.1025    0.3583   -2.3760 N   0  0  0  0  0  0  0  0  0  0  0  0
    2.6027   -0.9100   -1.8571 C   0  0  0  0  0  0  0  0  0  0  0  0
    1.0855   -1.0076   -2.0243 C   0  0  0  0  0  0  0  0  0  0  0  0
    0.5503   -2.3455   -1.5089 C   0  0  0  0  0  0  0  0  0  0  0  0
   -0.9752   -2.4656   -1.5871 C   0  0  0  0  0  0  0  0  0  0  0  0
   -1.5300   -2.3976   -3.0110 C   0  0  0  0  0  0  0  0  0  0  0  0
   -3.0320   -2.5746   -3.0372 C   0  0  0  0  0  0  0  0  0  0  0  0
   -3.5318   -2.5194   -4.2936 O   0  0  0  0  0  0  0  0  0  0  0  0
   -3.7425   -2.7413   -2.0602 O   0  0  0  0  0  0  0  0  0  0  0  0
    2.8654    0.4459   -3.3632 H   0  0  0  0  0  0  0  0  0  0  0  0
    2.6347    1.1312   -1.9041 H   0  0  0  0  0  0  0  0  0  0  0  0
    3.0969   -1.7298   -2.3899 H   0  0  0  0  0  0  0  0  0  0  0  0
    2.8762   -0.9949   -0.7997 H   0  0  0  0  0  0  0  0  0  0  0  0
    0.5989   -0.1869   -1.4832 H   0  0  0  0  0  0  0  0  0  0  0  0
    0.8373   -0.8902   -3.0853 H   0  0  0  0  0  0  0  0  0  0  0  0
    1.0115   -3.1700   -2.0654 H   0  0  0  0  0  0  0  0  0  0  0  0
    0.8478   -2.4692   -0.4591 H   0  0  0  0  0  0  0  0  0  0  0  0
   -1.2683   -3.4207   -1.1341 H   0  0  0  0  0  0  0  0  0  0  0  0
   -1.4357   -1.6808   -0.9728 H   0  0  0  0  0  0  0  0  0  0  0  0
   -1.3080   -1.4237   -3.4590 H   0  0  0  0  0  0  0  0  0  0  0  0
   -1.0791   -3.1880   -3.6205 H   0  0  0  0  0  0  0  0  0  0  0  0
   -2.8561   -2.3781   -4.9833 H   0  0  0  0  0  0  0  0  0  0  0  0
  1  2  1  0  0  0  0
  1 10  1  0  0  0  0
  1 11  1  0  0  0  0
  2  3  1  0  0  0  0
  2 12  1  0  0  0  0
  2 13  1  0  0  0  0
  3  4  1  0  0  0  0
  3 14  1  0  0  0  0
  3 15  1  0  0  0  0
  4  5  1  0  0  0  0
  4 16  1  0  0  0  0
  4 17  1  0  0  0  0
  5  6  1  0  0  0  0
  5 18  1  0  0  0  0
  5 19  1  0  0  0  0
  6  7  1  0  0  0  0
  6 20  1  0  0  0  0
  6 21  1  0  0  0  0
  7  8  1  0  0  0  0
  7  9  2  0  0  0  0
  8 22  1  0  0  0  0
M  END
>  <Mol_ID>
7704

>  <Formula>
C6H13NO2

>  <MolWeight>
131.17292

>  <Cat>
S1671

>  <Name>
(6-)¦Å-?Aminocaproic acid

>  <Synonyms>
N/A

>  <Target>
Others

>  <Form>
free base

>  <CAS>
60-32-2

>  <URL>
http://selleckchem.com/products/Aminocaproic-acid(Amicar).html

$$$$
