Amino-PEG1-C2-acid
 OpenBabel08302521453D

 20 19  0  0  0  0  0  0  0  0999 V2000
    1.2569   -0.0146    0.1715 C   0  0  0  0  0  0  0  0  0  0  0  0
    1.2030    1.0826    1.2196 C   0  0  0  0  0  0  0  0  0  0  0  0
    0.2827    0.2543   -0.8409 O   0  0  0  0  0  0  0  0  0  0  0  0
    2.2772    0.8774    2.2485 C   0  0  0  0  0  0  0  0  0  0  0  0
    0.2861   -0.7674   -1.8465 C   0  0  0  0  0  0  0  0  0  0  0  0
    2.2675    1.8348    3.1952 O   0  0  0  0  0  0  0  0  0  0  0  0
    3.0992   -0.0244    2.2861 O   0  0  0  0  0  0  0  0  0  0  0  0
   -0.8294   -0.4976   -2.8656 C   0  0  0  0  0  0  0  0  0  0  0  0
   -0.6506    0.7747   -3.5732 N   0  0  0  0  0  0  0  0  0  0  0  0
    1.0437   -0.9865    0.6332 H   0  0  0  0  0  0  0  0  0  0  0  0
    2.2513   -0.0583   -0.2888 H   0  0  0  0  0  0  0  0  0  0  0  0
    1.3406    2.0610    0.7487 H   0  0  0  0  0  0  0  0  0  0  0  0
    0.2264    1.0780    1.7157 H   0  0  0  0  0  0  0  0  0  0  0  0
    1.2624   -0.7842   -2.3450 H   0  0  0  0  0  0  0  0  0  0  0  0
    0.1113   -1.7417   -1.3752 H   0  0  0  0  0  0  0  0  0  0  0  0
    3.0059    1.5932    3.7948 H   0  0  0  0  0  0  0  0  0  0  0  0
   -0.8685   -1.3108   -3.5977 H   0  0  0  0  0  0  0  0  0  0  0  0
   -1.7943   -0.4621   -2.3491 H   0  0  0  0  0  0  0  0  0  0  0  0
    0.1903    0.7293   -4.1463 H   0  0  0  0  0  0  0  0  0  0  0  0
   -0.4555    1.4876   -2.8651 H   0  0  0  0  0  0  0  0  0  0  0  0
  1  2  1  0  0  0  0
  1  3  1  0  0  0  0
  1 10  1  0  0  0  0
  1 11  1  0  0  0  0
  2  4  1  0  0  0  0
  2 12  1  0  0  0  0
  2 13  1  0  0  0  0
  3  5  1  0  0  0  0
  4  6  1  0  0  0  0
  4  7  2  0  0  0  0
  5  8  1  0  0  0  0
  5 14  1  0  0  0  0
  5 15  1  0  0  0  0
  6 16  1  0  0  0  0
  8  9  1  0  0  0  0
  8 17  1  0  0  0  0
  8 18  1  0  0  0  0
  9 19  1  0  0  0  0
  9 20  1  0  0  0  0
M  END
>  <Mol_ID>
9554

>  <Formula>
C5H11NO3

>  <MolWeight>
133.14574

>  <Cat>
S1872

>  <Name>
Amino-PEG1-C2-acid

>  <Target>
Others

>  <Form>
Free base

>  <CAS>
144942-89-2

>  <URL>
https://www.selleckchem.com/products/amino-peg1-c2-acid.html

$$$$
