Aminomalonic acid
 OpenBabel08302521383D

 13 12  0  0  0  0  0  0  0  0999 V2000
    0.7945    0.0659   -0.1324 C   0  0  0  0  0  0  0  0  0  0  0  0
    0.4098    1.1575    0.8544 C   0  0  0  0  0  0  0  0  0  0  0  0
    0.2758    0.3459   -1.5386 C   0  0  0  0  0  0  0  0  0  0  0  0
    0.2544   -1.2562    0.3513 N   0  0  0  0  0  0  0  0  0  0  0  0
    1.2982    1.3042    1.8688 O   0  0  0  0  0  0  0  0  0  0  0  0
   -0.6643    1.7417    0.8578 O   0  0  0  0  0  0  0  0  0  0  0  0
   -0.3872   -0.7240   -2.0566 O   0  0  0  0  0  0  0  0  0  0  0  0
    0.4972    1.3626   -2.1778 O   0  0  0  0  0  0  0  0  0  0  0  0
    1.8846   -0.0102   -0.2152 H   0  0  0  0  0  0  0  0  0  0  0  0
    0.7791   -1.5307    1.1866 H   0  0  0  0  0  0  0  0  0  0  0  0
   -0.6942   -1.0759    0.7131 H   0  0  0  0  0  0  0  0  0  0  0  0
    2.1117    0.7706    1.7996 H   0  0  0  0  0  0  0  0  0  0  0  0
   -0.3767   -1.4338   -1.3688 H   0  0  0  0  0  0  0  0  0  0  0  0
  1  2  1  0  0  0  0
  1  3  1  0  0  0  0
  1  4  1  0  0  0  0
  1  9  1  0  0  0  0
  2  5  1  0  0  0  0
  2  6  2  0  0  0  0
  3  7  1  0  0  0  0
  3  8  2  0  0  0  0
  4 10  1  0  0  0  0
  4 11  1  0  0  0  0
  5 12  1  0  0  0  0
  7 13  1  0  0  0  0
M  END
>  <Mol_ID>
7905

>  <Formula>
C3H5NO4

>  <MolWeight>
119.0761

>  <Cat>
S6129

>  <Name>
Aminomalonic acid

>  <Synonyms>
Aminomalonate, Aminopropanedioic acid

>  <Target>
Others

>  <Form>
free base

>  <CAS>
1068-84-4

>  <URL>
http://www.selleck.cn/products/aminomalonic-acid.html

$$$$
