Aminothiazole.cdx
 OpenBabel08302522043D

 10 10  0  0  0  0  0  0  0  0999 V2000
   -1.0913   -1.2914    0.0065 C   0  0  0  0  0  0  0  0  0  0  0  0
   -1.6137   -0.0170    0.0240 C   0  0  0  0  0  0  0  0  0  0  0  0
   -0.3365    1.1235   -0.0379 S   0  0  0  0  0  0  0  0  0  0  0  0
    0.7988   -0.1652   -0.0978 C   0  0  0  0  0  0  0  0  0  0  0  0
    0.2859   -1.3697   -0.0544 N   0  0  0  0  0  0  0  0  0  0  0  0
    2.1190    0.0678   -0.1655 N   0  0  0  0  0  0  0  0  0  0  0  0
   -1.6721   -2.2051    0.0371 H   0  0  0  0  0  0  0  0  0  0  0  0
   -2.6486    0.2882    0.0684 H   0  0  0  0  0  0  0  0  0  0  0  0
    2.4604    0.9681    0.1453 H   0  0  0  0  0  0  0  0  0  0  0  0
    2.7131   -0.7162    0.0779 H   0  0  0  0  0  0  0  0  0  0  0  0
  1  2  2  0  0  0  0
  1  7  1  0  0  0  0
  2  3  1  0  0  0  0
  2  8  1  0  0  0  0
  3  4  1  0  0  0  0
  4  5  2  0  0  0  0
  4  6  1  0  0  0  0
  5  1  1  0  0  0  0
  6  9  1  0  0  0  0
  6 10  1  0  0  0  0
M  END
>  <Mol_ID>
1300

>  <Formula>
C3H4N2S

>  <MolWeight>
100.14226

>  <Cat>
S4198

>  <Name>
Aminothiazole

>  <Synonyms>
2-Aminothiazole,2-Thiazolylamine

>  <Target>
Bacterial

>  <Form>
free base

>  <CAS>
96-50-4

>  <URL>
http://selleckchem.com/products/aminothiazole.html

$$$$
