amoxicillin.cdx
 OpenBabel08302522033D

 44 46  0  0  0  0  0  0  0  0999 V2000
   -1.9810   -1.0163   -0.1320 C   0  0  2  0  0  0  0  0  0  0  0  0
   -1.9244    0.5133   -0.3896 C   0  0  0  0  0  0  0  0  0  0  0  0
   -0.8431    0.6547    0.4463 N   0  0  0  0  0  0  0  0  0  0  0  0
   -0.5722   -0.7934    0.4697 C   0  0  2  0  0  0  0  0  0  0  0  0
    0.2476    1.5610    0.0682 C   0  0  2  0  0  0  0  0  0  0  0  0
    1.5267    0.7080   -0.0908 C   0  0  0  0  0  0  0  0  0  0  0  0
    0.8894   -0.9560   -0.6355 S   0  0  0  0  0  0  0  0  0  0  0  0
    2.4616    1.2687   -1.1662 C   0  0  0  0  0  0  0  0  0  0  0  0
    2.3101    0.4705    1.2091 C   0  0  0  0  0  0  0  0  0  0  0  0
    0.4218    2.7421    1.0249 C   0  0  0  0  0  0  0  0  0  0  0  0
    1.3052    3.5865    0.9614 O   0  0  0  0  0  0  0  0  0  0  0  0
   -0.5233    2.8348    1.9828 O   0  0  0  0  0  0  0  0  0  0  0  0
   -2.0736   -1.9178   -1.3075 N   0  0  0  0  0  0  0  0  0  0  0  0
   -2.4632    1.2976   -1.1372 O   0  0  0  0  0  0  0  0  0  0  0  0
   -2.2046   -3.2896   -1.1664 C   0  0  0  0  0  0  0  0  0  0  0  0
   -2.3704   -3.8194   -0.0700 O   0  0  0  0  0  0  0  0  0  0  0  0
   -2.0928   -4.0858   -2.4950 C   0  0  1  0  0  0  0  0  0  0  0  0
   -3.3184   -4.9185   -2.8372 C   0  0  0  0  0  0  0  0  0  0  0  0
   -1.7844   -3.1682   -3.6301 N   0  0  0  0  0  0  0  0  0  0  0  0
   -4.5676   -4.3132   -3.0636 C   0  0  0  0  0  0  0  0  0  0  0  0
   -5.6410   -5.0518   -3.5698 C   0  0  0  0  0  0  0  0  0  0  0  0
   -5.4796   -6.4082   -3.8250 C   0  0  0  0  0  0  0  0  0  0  0  0
   -4.2772   -7.0436   -3.5456 C   0  0  0  0  0  0  0  0  0  0  0  0
   -3.1972   -6.3018   -3.0575 C   0  0  0  0  0  0  0  0  0  0  0  0
   -6.4813   -7.1502   -4.3774 O   0  0  0  0  0  0  0  0  0  0  0  0
   -2.7466   -1.2619    0.6160 H   0  0  0  0  0  0  0  0  0  0  0  0
   -0.4280   -1.1726    1.4849 H   0  0  0  0  0  0  0  0  0  0  0  0
   -0.0230    2.0157   -0.8961 H   0  0  0  0  0  0  0  0  0  0  0  0
    2.8511    2.2496   -0.8695 H   0  0  0  0  0  0  0  0  0  0  0  0
    3.3267    0.6158   -1.3296 H   0  0  0  0  0  0  0  0  0  0  0  0
    1.9508    1.3998   -2.1267 H   0  0  0  0  0  0  0  0  0  0  0  0
    3.0731   -0.3074    1.0780 H   0  0  0  0  0  0  0  0  0  0  0  0
    2.8396    1.3754    1.5259 H   0  0  0  0  0  0  0  0  0  0  0  0
    1.6605    0.1652    2.0366 H   0  0  0  0  0  0  0  0  0  0  0  0
   -0.3217    3.6650    2.4630 H   0  0  0  0  0  0  0  0  0  0  0  0
   -1.7248   -1.6224   -2.2186 H   0  0  0  0  0  0  0  0  0  0  0  0
   -1.2198   -4.7393   -2.3702 H   0  0  0  0  0  0  0  0  0  0  0  0
   -1.6340   -3.7597   -4.4508 H   0  0  0  0  0  0  0  0  0  0  0  0
   -2.6346   -2.6486   -3.8532 H   0  0  0  0  0  0  0  0  0  0  0  0
   -4.7063   -3.2501   -2.8798 H   0  0  0  0  0  0  0  0  0  0  0  0
   -6.5827   -4.5512   -3.7698 H   0  0  0  0  0  0  0  0  0  0  0  0
   -4.1725   -8.1091   -3.7327 H   0  0  0  0  0  0  0  0  0  0  0  0
   -2.2545   -6.8137   -2.8757 H   0  0  0  0  0  0  0  0  0  0  0  0
   -7.2011   -6.5532   -4.6399 H   0  0  0  0  0  0  0  0  0  0  0  0
  1  2  1  0  0  0  0
  1 26  1  1  0  0  0
  1 13  1  0  0  0  0
  2  3  1  0  0  0  0
  2 14  2  0  0  0  0
  3  4  1  0  0  0  0
  3  5  1  0  0  0  0
  4  1  1  0  0  0  0
  4  7  1  0  0  0  0
  4 27  1  1  0  0  0
  5  6  1  0  0  0  0
  5 28  1  6  0  0  0
  5 10  1  0  0  0  0
  6  7  1  0  0  0  0
  6  8  1  0  0  0  0
  6  9  1  0  0  0  0
  8 29  1  0  0  0  0
  8 30  1  0  0  0  0
  8 31  1  0  0  0  0
  9 32  1  0  0  0  0
  9 33  1  0  0  0  0
  9 34  1  0  0  0  0
 10 11  2  0  0  0  0
 10 12  1  0  0  0  0
 12 35  1  0  0  0  0
 13 15  1  0  0  0  0
 13 36  1  0  0  0  0
 15 16  2  0  0  0  0
 15 17  1  0  0  0  0
 17 18  1  0  0  0  0
 17 19  1  0  0  0  0
 17 37  1  1  0  0  0
 18 20  2  0  0  0  0
 19 38  1  0  0  0  0
 19 39  1  0  0  0  0
 20 21  1  0  0  0  0
 20 40  1  0  0  0  0
 21 22  2  0  0  0  0
 21 41  1  0  0  0  0
 22 23  1  0  0  0  0
 22 25  1  0  0  0  0
 23 24  2  0  0  0  0
 23 42  1  0  0  0  0
 24 18  1  0  0  0  0
 24 43  1  0  0  0  0
 25 44  1  0  0  0  0
M  END
>  <Mol_ID>
1165

>  <Formula>
C16H19N3O5S

>  <MolWeight>
365.40416

>  <Cat>
S3015

>  <Name>
Amoxicillin

>  <Synonyms>
Amoxycillin

>  <Target>
Antibiotics,Bacterial

>  <Form>
Free Base

>  <CAS>
26787-78-0

>  <URL>
http://selleckchem.com/products/amoxicillin-amoxycillin.html

$$$$
