AMPHICOL (chloramphenicol).cdx
 OpenBabel08302520403D

 32 32  0  0  0  0  0  0  0  0999 V2000
    0.4145    3.8908    3.8463 C   0  0  0  0  0  0  0  0  0  0  0  0
   -0.4845    4.9522    4.0153 C   0  0  0  0  0  0  0  0  0  0  0  0
   -1.4269    5.2385    3.0277 C   0  0  0  0  0  0  0  0  0  0  0  0
   -1.4880    4.4292    1.8899 C   0  0  0  0  0  0  0  0  0  0  0  0
   -0.6408    3.3107    1.7249 C   0  0  0  0  0  0  0  0  0  0  0  0
    0.3417    3.0835    2.6984 C   0  0  0  0  0  0  0  0  0  0  0  0
   -0.4449    5.7652    5.2364 N   0  3  0  0  0  0  0  0  0  0  0  0
    0.4765    5.5502    6.0396 O   0  0  0  0  0  0  0  0  0  0  0  0
   -1.3365    6.6094    5.4000 O   0  5  0  0  0  0  0  0  0  0  0  0
   -0.8850    2.4324    0.5072 C   0  0  2  0  0  0  0  0  0  0  0  0
   -0.1544    1.0653    0.3187 C   0  0  2  0  0  0  0  0  0  0  0  0
   -0.6070    0.4479   -0.9597 N   0  0  0  0  0  0  0  0  0  0  0  0
    0.0934    0.0273   -2.0462 C   0  0  0  0  0  0  0  0  0  0  0  0
   -0.5246   -0.4348   -3.0076 O   0  0  0  0  0  0  0  0  0  0  0  0
    1.5928    0.0773   -2.0286 C   0  0  0  0  0  0  0  0  0  0  0  0
   -0.6294    3.2507   -0.6452 O   0  0  0  0  0  0  0  0  0  0  0  0
   -0.4514    0.0626    1.4481 C   0  0  0  0  0  0  0  0  0  0  0  0
    0.3475   -1.1108    1.2875 O   0  0  0  0  0  0  0  0  0  0  0  0
    1.1686    3.6715    4.6007 H   0  0  0  0  0  0  0  0  0  0  0  0
   -2.1199    6.0710    3.1270 H   0  0  0  0  0  0  0  0  0  0  0  0
   -2.2173    4.6728    1.1160 H   0  0  0  0  0  0  0  0  0  0  0  0
    1.0597    2.2720    2.6054 H   0  0  0  0  0  0  0  0  0  0  0  0
   -1.9623    2.2168    0.4918 H   0  0  0  0  0  0  0  0  0  0  0  0
    0.9252    1.2274    0.2460 H   0  0  0  0  0  0  0  0  0  0  0  0
   -1.6061    0.4003   -1.1221 H   0  0  0  0  0  0  0  0  0  0  0  0
    1.9536    1.0495   -1.6843 H   0  0  0  0  0  0  0  0  0  0  0  0
    1.9790   -0.7240   -1.3924 H   0  0  0  0  0  0  0  0  0  0  0  0
    1.9647   -0.0713   -3.0457 H   0  0  0  0  0  0  0  0  0  0  0  0
    0.2909    3.5608   -0.5884 H   0  0  0  0  0  0  0  0  0  0  0  0
   -0.2195    0.4634    2.4345 H   0  0  0  0  0  0  0  0  0  0  0  0
   -1.5039   -0.2427    1.4511 H   0  0  0  0  0  0  0  0  0  0  0  0
    0.0265   -1.5633    0.4854 H   0  0  0  0  0  0  0  0  0  0  0  0
  1  2  2  0  0  0  0
  1 19  1  0  0  0  0
  2  3  1  0  0  0  0
  2  7  1  0  0  0  0
  3  4  2  0  0  0  0
  3 20  1  0  0  0  0
  4  5  1  0  0  0  0
  4 21  1  0  0  0  0
  5  6  2  0  0  0  0
  6  1  1  0  0  0  0
  6 22  1  0  0  0  0
  7  8  2  0  0  0  0
  7  9  1  0  0  0  0
 10 16  1  0  0  0  0
 10 23  1  6  0  0  0
 10 11  1  0  0  0  0
 10  5  1  0  0  0  0
 11 24  1  6  0  0  0
 11 17  1  0  0  0  0
 11 12  1  0  0  0  0
 12 13  1  0  0  0  0
 12 25  1  0  0  0  0
 13 14  2  0  0  0  0
 13 15  1  0  0  0  0
 15 26  1  0  0  0  0
 15 27  1  0  0  0  0
 15 28  1  0  0  0  0
 16 29  1  0  0  0  0
 17 18  1  0  0  0  0
 17 30  1  0  0  0  0
 17 31  1  0  0  0  0
 18 32  1  0  0  0  0
M  CHG  2   7   1   9  -1
M  END
>  <Mol_ID>
387

>  <Formula>
C11H12Cl2N2O5

>  <MolWeight>
323.12938

>  <Cat>
S1677

>  <Name>
Chloramphenicol

>  <Synonyms>
Chloromycetin

>  <Target>
Antibiotics for Plant Cell Culture,Bacterial,Selection Antibiotics for Transfected Cell

>  <Form>
free base

>  <CAS>
56-75-7

>  <URL>
http://selleckchem.com/products/Chloramphenicol(Chloromycetin).html

$$$$
