Anagrelide hydrochloride.cdx
 OpenBabel08302519503D

 23 25  0  0  0  0  0  0  0  0999 V2000
   -3.3195    0.7700   -0.0028 C   0  0  0  0  0  0  0  0  0  0  0  0
   -3.3704   -0.6226   -0.0015 C   0  0  0  0  0  0  0  0  0  0  0  0
   -2.1893   -1.3622    0.0006 C   0  0  0  0  0  0  0  0  0  0  0  0
   -0.9472   -0.7100    0.0001 C   0  0  0  0  0  0  0  0  0  0  0  0
   -0.8944    0.6956    0.0014 C   0  0  0  0  0  0  0  0  0  0  0  0
   -2.0863    1.4261   -0.0028 C   0  0  0  0  0  0  0  0  0  0  0  0
    0.3302   -1.5136    0.0181 C   0  0  0  0  0  0  0  0  0  0  0  0
    1.4922   -0.6752   -0.0678 N   0  0  0  0  0  0  0  0  0  0  0  0
    1.5245    0.6814   -0.0163 C   0  0  0  0  0  0  0  0  0  0  0  0
    0.3452    1.3420   -0.0044 N   0  0  0  0  0  0  0  0  0  0  0  0
    2.8427   -1.1811   -0.0108 C   0  0  0  0  0  0  0  0  0  0  0  0
    3.6094    0.1505    0.0010 C   0  0  0  0  0  0  0  0  0  0  0  0
    2.7128    1.2132    0.0144 N   0  0  0  0  0  0  0  0  0  0  0  0
    4.8297    0.2430    0.0078 O   0  0  0  0  0  0  0  0  0  0  0  0
   -4.2408    1.3468   -0.0047 H   0  0  0  0  0  0  0  0  0  0  0  0
   -4.3315   -1.1312   -0.0016 H   0  0  0  0  0  0  0  0  0  0  0  0
   -2.2402   -2.4486    0.0032 H   0  0  0  0  0  0  0  0  0  0  0  0
   -2.0667    2.5129   -0.0053 H   0  0  0  0  0  0  0  0  0  0  0  0
    0.3653   -2.0997    0.9438 H   0  0  0  0  0  0  0  0  0  0  0  0
    0.3258   -2.2075   -0.8303 H   0  0  0  0  0  0  0  0  0  0  0  0
    0.3748    2.3504    0.0253 H   0  0  0  0  0  0  0  0  0  0  0  0
    3.0983   -1.7594   -0.9012 H   0  0  0  0  0  0  0  0  0  0  0  0
    3.0381   -1.7312    0.9131 H   0  0  0  0  0  0  0  0  0  0  0  0
  1  2  2  0  0  0  0
  1 15  1  0  0  0  0
  2  3  1  0  0  0  0
  2 16  1  0  0  0  0
  3  4  2  0  0  0  0
  3 17  1  0  0  0  0
  4  5  1  0  0  0  0
  4  7  1  0  0  0  0
  5  6  2  0  0  0  0
  6  1  1  0  0  0  0
  6 18  1  0  0  0  0
  7  8  1  0  0  0  0
  7 19  1  0  0  0  0
  7 20  1  0  0  0  0
  8  9  1  0  0  0  0
  8 11  1  0  0  0  0
  9 10  1  0  0  0  0
 10  5  1  0  0  0  0
 10 21  1  0  0  0  0
 11 12  1  0  0  0  0
 11 22  1  0  0  0  0
 11 23  1  0  0  0  0
 12 13  1  0  0  0  0
 12 14  2  0  0  0  0
 13  9  2  0  0  0  0
M  END
>  <Mol_ID>
166

>  <Formula>
C10H8Cl3N3O

>  <MolWeight>
292.54902

>  <Cat>
S3172

>  <Name>
Anagrelide HCl

>  <Synonyms>
BL-4162A,BMY 26538-01

>  <Target>
PDE

>  <Form>
Hydrochloride

>  <CAS>
58579-51-4

>  <URL>
http://selleckchem.com/products/anagrelide-hydrochloride.html

$$$$
