ANCOBON (flucytosine).cdx
 OpenBabel08302520403D

 13 13  0  0  0  0  0  0  0  0999 V2000
    1.5708   -0.0492    0.0271 C   0  0  0  0  0  0  0  0  0  0  0  0
    1.0814    1.2402    0.0512 N   0  0  0  0  0  0  0  0  0  0  0  0
   -0.2501    1.5435    0.0265 C   0  0  0  0  0  0  0  0  0  0  0  0
   -1.1375    0.5567   -0.0333 C   0  0  0  0  0  0  0  0  0  0  0  0
   -0.6035   -0.8300   -0.0794 C   0  0  0  0  0  0  0  0  0  0  0  0
    0.6727   -1.0894   -0.0382 N   0  0  0  0  0  0  0  0  0  0  0  0
    2.7856   -0.2188    0.0681 O   0  0  0  0  0  0  0  0  0  0  0  0
   -2.4692    0.7331   -0.0456 F   0  0  0  0  0  0  0  0  0  0  0  0
   -1.4559   -1.9006   -0.1592 N   0  0  0  0  0  0  0  0  0  0  0  0
    1.7874    1.9634    0.0951 H   0  0  0  0  0  0  0  0  0  0  0  0
   -0.5329    2.5879    0.0614 H   0  0  0  0  0  0  0  0  0  0  0  0
   -2.3974   -1.7732    0.1916 H   0  0  0  0  0  0  0  0  0  0  0  0
   -1.0233   -2.7834    0.0914 H   0  0  0  0  0  0  0  0  0  0  0  0
  1  2  1  0  0  0  0
  1  7  2  0  0  0  0
  2  3  1  0  0  0  0
  2 10  1  0  0  0  0
  3  4  2  0  0  0  0
  3 11  1  0  0  0  0
  4  5  1  0  0  0  0
  4  8  1  0  0  0  0
  5  6  2  0  0  0  0
  5  9  1  0  0  0  0
  6  1  1  0  0  0  0
  9 12  1  0  0  0  0
  9 13  1  0  0  0  0
M  END
>  <Mol_ID>
382

>  <Formula>
C4H4FN3O

>  <MolWeight>
129.0924632

>  <Cat>
S1666

>  <Name>
Flucytosine

>  <Synonyms>
5-Fluorocytosine, 5-FC, NSC 103805, Ro 2-9915

>  <Target>
Fungal

>  <Form>
free base

>  <CAS>
2022-85-7

>  <URL>
http://selleckchem.com/products/Flucytosine(Ancobon).html

$$$$
