Androsin
 OpenBabel08302521453D

 43 44  0  0  1  0  0  0  0  0999 V2000
    2.9269    1.3677    0.7288 O   0  0  0  0  0  0  0  0  0  0  0  0
    4.7533    3.7473    0.2861 O   0  0  0  0  0  0  0  0  0  0  0  0
    3.5878    4.2159    0.9595 C   0  0  0  0  0  0  0  0  0  0  0  0
    8.3048    0.4923   -0.5707 C   0  0  0  0  0  0  0  0  0  0  0  0
    9.4508    1.4622   -0.6303 C   0  0  0  0  0  0  0  0  0  0  0  0
    8.4703   -0.6732   -0.9542 O   0  0  0  0  0  0  0  0  0  0  0  0
    1.9602    1.0069   -2.1972 O   0  0  0  0  0  0  0  0  0  0  0  0
    3.0145   -3.2484    1.3334 C   0  0  0  0  0  0  0  0  0  0  0  0
    2.2763   -3.3164    2.5510 O   0  0  0  0  0  0  0  0  0  0  0  0
    3.4413   -1.4151   -3.1799 O   0  0  0  0  0  0  0  0  0  0  0  0
    2.8131   -3.7061   -1.5773 O   0  0  0  0  0  0  0  0  0  0  0  0
    4.3078    1.3235    0.7340 C   0  0  0  0  0  0  0  0  0  0  0  0
    5.1076    2.4279    0.4005 C   0  0  0  0  0  0  0  0  0  0  0  0
    4.9443    0.0976    0.9307 C   0  0  0  0  0  0  0  0  0  0  0  0
    6.4618    2.1984    0.0338 C   0  0  0  0  0  0  0  0  0  0  0  0
    6.2259   -0.1434    0.4780 C   0  0  0  0  0  0  0  0  0  0  0  0
    6.9962    0.9045   -0.0169 C   0  0  0  0  0  0  0  0  0  0  0  0
    2.2792    0.1974    0.0795 C   0  0  2  0  0  0  0  0  0  0  0  0
    2.3947   -0.9692    0.9103 O   0  0  0  0  0  0  0  0  0  0  0  0
    2.7363    0.0756   -1.4076 C   0  0  1  0  0  0  0  0  0  0  0  0
    2.3381   -2.2782    0.3332 C   0  0  1  0  0  0  0  0  0  0  0  0
    2.6324   -1.3366   -1.9893 C   0  0  2  0  0  0  0  0  0  0  0  0
    3.0642   -2.4130   -1.0042 C   0  0  2  0  0  0  0  0  0  0  0  0
    2.6915    3.9901    0.3801 H   0  0  0  0  0  0  0  0  0  0  0  0
    3.5163    3.8581    1.9865 H   0  0  0  0  0  0  0  0  0  0  0  0
    3.6695    5.3136    1.0073 H   0  0  0  0  0  0  0  0  0  0  0  0
   10.0762    1.3142    0.2525 H   0  0  0  0  0  0  0  0  0  0  0  0
   10.0327    1.2661   -1.5326 H   0  0  0  0  0  0  0  0  0  0  0  0
    9.1160    2.5009   -0.6663 H   0  0  0  0  0  0  0  0  0  0  0  0
    1.5278    0.5231   -2.9224 H   0  0  0  0  0  0  0  0  0  0  0  0
    3.0977   -4.2638    0.9335 H   0  0  0  0  0  0  0  0  0  0  0  0
    4.0288   -2.9135    1.5898 H   0  0  0  0  0  0  0  0  0  0  0  0
    2.2394   -2.4060    2.8980 H   0  0  0  0  0  0  0  0  0  0  0  0
    4.2750   -1.8826   -2.9716 H   0  0  0  0  0  0  0  0  0  0  0  0
    1.8873   -3.7442   -1.8839 H   0  0  0  0  0  0  0  0  0  0  0  0
    4.4306   -0.7408    1.3720 H   0  0  0  0  0  0  0  0  0  0  0  0
    7.0537    3.0608   -0.2612 H   0  0  0  0  0  0  0  0  0  0  0  0
    6.6032   -1.1618    0.4854 H   0  0  0  0  0  0  0  0  0  0  0  0
    1.2111    0.4491    0.0758 H   0  0  0  0  0  0  0  0  0  0  0  0
    3.7675    0.4143   -1.5404 H   0  0  0  0  0  0  0  0  0  0  0  0
    1.2842   -2.5587    0.2390 H   0  0  0  0  0  0  0  0  0  0  0  0
    1.6149   -1.5323   -2.3348 H   0  0  0  0  0  0  0  0  0  0  0  0
    4.1478   -2.3603   -0.8546 H   0  0  0  0  0  0  0  0  0  0  0  0
  1 12  1  0  0  0  0
  2  3  1  0  0  0  0
  2 13  1  0  0  0  0
  3 24  1  0  0  0  0
  3 25  1  0  0  0  0
  3 26  1  0  0  0  0
  4  5  1  0  0  0  0
  4  6  2  0  0  0  0
  4 17  1  0  0  0  0
  5 27  1  0  0  0  0
  5 28  1  0  0  0  0
  5 29  1  0  0  0  0
  7 30  1  0  0  0  0
  8  9  1  0  0  0  0
  8 31  1  0  0  0  0
  8 32  1  0  0  0  0
  9 33  1  0  0  0  0
 10 34  1  0  0  0  0
 11 35  1  0  0  0  0
 12 13  2  0  0  0  0
 12 14  1  0  0  0  0
 13 15  1  0  0  0  0
 14 16  2  0  0  0  0
 14 36  1  0  0  0  0
 15 17  2  0  0  0  0
 15 37  1  0  0  0  0
 16 17  1  0  0  0  0
 16 38  1  0  0  0  0
 18 19  1  0  0  0  0
 18 20  1  0  0  0  0
 18 39  1  6  0  0  0
 18  1  1  0  0  0  0
 19 21  1  0  0  0  0
 20  7  1  0  0  0  0
 20 22  1  0  0  0  0
 20 40  1  6  0  0  0
 21  8  1  0  0  0  0
 21 23  1  0  0  0  0
 21 41  1  6  0  0  0
 22 10  1  0  0  0  0
 22 23  1  0  0  0  0
 22 42  1  6  0  0  0
 23 11  1  0  0  0  0
 23 43  1  1  0  0  0
M  END
>  <Mol_ID>
9584

>  <Formula>
C15H20O8

>  <MolWeight>
328.3145

>  <Cat>
E2041

>  <Name>
Androsin

>  <Synonyms>
NA

>  <Target>
SREBP1c/FASN, Autophagy

>  <Form>
Free Base

>  <CAS>
531-28-2

>  <URL>
https://www.selleckchem.com/products/androsin.html

$$$$
