Anethole trithione
 OpenBabel08302520393D

 22 23  0  0  0  0  0  0  0  0999 V2000
    1.4115   -0.1752   -0.0262 C   0  0  0  0  0  0  0  0  0  0  0  0
    0.5690   -1.2853   -0.0817 C   0  0  0  0  0  0  0  0  0  0  0  0
   -0.8150   -1.0956   -0.0490 C   0  0  0  0  0  0  0  0  0  0  0  0
   -1.3577    0.1873    0.0652 C   0  0  0  0  0  0  0  0  0  0  0  0
   -0.5142    1.2998    0.1439 C   0  0  0  0  0  0  0  0  0  0  0  0
    0.8726    1.1107    0.0883 C   0  0  0  0  0  0  0  0  0  0  0  0
    0.9663   -2.5912   -0.1604 O   0  0  0  0  0  0  0  0  0  0  0  0
    2.3669   -2.8383   -0.1319 C   0  0  0  0  0  0  0  0  0  0  0  0
   -1.0588    2.6369    0.3713 C   0  0  0  0  0  0  0  0  0  0  0  0
   -1.4599    3.6023   -0.9948 S   0  0  0  0  0  0  0  0  0  0  0  0
   -2.0377    5.2086    0.1325 S   0  0  0  0  0  0  0  0  0  0  0  0
   -1.7450    4.4921    1.7110 C   0  0  0  0  0  0  0  0  0  0  0  0
   -1.2218    3.1144    1.6090 C   0  0  0  0  0  0  0  0  0  0  0  0
   -2.0202    5.2999    3.1475 S   0  0  0  0  0  0  0  0  0  0  0  0
    2.4913   -0.2730   -0.0600 H   0  0  0  0  0  0  0  0  0  0  0  0
   -1.4768   -1.9572   -0.0988 H   0  0  0  0  0  0  0  0  0  0  0  0
   -2.4382    0.3054    0.1039 H   0  0  0  0  0  0  0  0  0  0  0  0
    1.5469    1.9633    0.1454 H   0  0  0  0  0  0  0  0  0  0  0  0
    2.8553   -2.4187   -1.0172 H   0  0  0  0  0  0  0  0  0  0  0  0
    2.8206   -2.4561    0.7890 H   0  0  0  0  0  0  0  0  0  0  0  0
    2.5162   -3.9221   -0.1492 H   0  0  0  0  0  0  0  0  0  0  0  0
   -0.9842    2.5582    2.5063 H   0  0  0  0  0  0  0  0  0  0  0  0
  1  2  2  0  0  0  0
  1 15  1  0  0  0  0
  2  3  1  0  0  0  0
  2  7  1  0  0  0  0
  3  4  2  0  0  0  0
  3 16  1  0  0  0  0
  4  5  1  0  0  0  0
  4 17  1  0  0  0  0
  5  6  2  0  0  0  0
  5  9  1  0  0  0  0
  6  1  1  0  0  0  0
  6 18  1  0  0  0  0
  7  8  1  0  0  0  0
  8 19  1  0  0  0  0
  8 20  1  0  0  0  0
  8 21  1  0  0  0  0
  9 10  1  0  0  0  0
 10 11  1  0  0  0  0
 11 12  1  0  0  0  0
 12 13  1  0  0  0  0
 12 14  2  0  0  0  0
 13  9  2  0  0  0  0
 13 22  1  0  0  0  0
M  END
>  <Mol_ID>
3701

>  <Formula>
C10H8OS3

>  <MolWeight>
240.36492

>  <Cat>
S4744

>  <Name>
Anethole trithione

>  <Synonyms>
N/A

>  <Target>
Others

>  <Form>
Free Base

>  <CAS>
532-11-6

>  <URL>
http://www.selleck.cn/products/anethole-trithione.html

$$$$
