Aniracetam.cdx
 OpenBabel08302522043D

 29 30  0  0  0  0  0  0  0  0999 V2000
    1.3995   -0.3617   -0.0000 C   0  0  0  0  0  0  0  0  0  0  0  0
    0.4343   -1.3679   -0.0232 C   0  0  0  0  0  0  0  0  0  0  0  0
   -0.9277   -1.0336   -0.0676 C   0  0  0  0  0  0  0  0  0  0  0  0
   -1.3335    0.3084   -0.1059 C   0  0  0  0  0  0  0  0  0  0  0  0
   -0.3548    1.2979   -0.2089 C   0  0  0  0  0  0  0  0  0  0  0  0
    0.9965    0.9685   -0.1030 C   0  0  0  0  0  0  0  0  0  0  0  0
   -2.7982    0.6141   -0.0597 C   0  0  0  0  0  0  0  0  0  0  0  0
   -3.2499    1.7020    0.6901 N   0  0  0  0  0  0  0  0  0  0  0  0
    2.7503   -0.5271    0.1092 O   0  0  0  0  0  0  0  0  0  0  0  0
    3.2402   -1.8600    0.1246 C   0  0  0  0  0  0  0  0  0  0  0  0
   -3.5367   -0.1745   -0.6436 O   0  0  0  0  0  0  0  0  0  0  0  0
   -4.5889    2.1273    0.7175 C   0  0  0  0  0  0  0  0  0  0  0  0
   -4.6591    3.4029    1.5273 C   0  0  0  0  0  0  0  0  0  0  0  0
   -3.3935    3.3652    2.3583 C   0  0  0  0  0  0  0  0  0  0  0  0
   -2.4355    2.6110    1.4726 C   0  0  0  0  0  0  0  0  0  0  0  0
   -5.5658    1.6313    0.1854 O   0  0  0  0  0  0  0  0  0  0  0  0
    0.7025   -2.4190    0.0049 H   0  0  0  0  0  0  0  0  0  0  0  0
   -1.6731   -1.8284   -0.0685 H   0  0  0  0  0  0  0  0  0  0  0  0
   -0.6091    2.3369   -0.3752 H   0  0  0  0  0  0  0  0  0  0  0  0
    1.7447    1.7578   -0.1087 H   0  0  0  0  0  0  0  0  0  0  0  0
    2.8450   -2.4209    0.9774 H   0  0  0  0  0  0  0  0  0  0  0  0
    3.0206   -2.3651   -0.8211 H   0  0  0  0  0  0  0  0  0  0  0  0
    4.3279   -1.8106    0.2346 H   0  0  0  0  0  0  0  0  0  0  0  0
   -4.6639    4.2514    0.8353 H   0  0  0  0  0  0  0  0  0  0  0  0
   -5.5516    3.4295    2.1564 H   0  0  0  0  0  0  0  0  0  0  0  0
   -3.0253    4.3626    2.6146 H   0  0  0  0  0  0  0  0  0  0  0  0
   -3.5671    2.8142    3.2889 H   0  0  0  0  0  0  0  0  0  0  0  0
   -1.9566    3.3199    0.7903 H   0  0  0  0  0  0  0  0  0  0  0  0
   -1.6773    2.0774    2.0541 H   0  0  0  0  0  0  0  0  0  0  0  0
  1  2  2  0  0  0  0
  1  9  1  0  0  0  0
  2  3  1  0  0  0  0
  2 17  1  0  0  0  0
  3  4  2  0  0  0  0
  3 18  1  0  0  0  0
  4  5  1  0  0  0  0
  4  7  1  0  0  0  0
  5  6  2  0  0  0  0
  5 19  1  0  0  0  0
  6  1  1  0  0  0  0
  6 20  1  0  0  0  0
  7  8  1  0  0  0  0
  7 11  2  0  0  0  0
  8 12  1  0  0  0  0
  9 10  1  0  0  0  0
 10 21  1  0  0  0  0
 10 22  1  0  0  0  0
 10 23  1  0  0  0  0
 12 13  1  0  0  0  0
 12 16  2  0  0  0  0
 13 14  1  0  0  0  0
 13 24  1  0  0  0  0
 13 25  1  0  0  0  0
 14 15  1  0  0  0  0
 14 26  1  0  0  0  0
 14 27  1  0  0  0  0
 15  8  1  0  0  0  0
 15 28  1  0  0  0  0
 15 29  1  0  0  0  0
M  END
>  <Mol_ID>
153

>  <Formula>
C12H13NO3

>  <MolWeight>
219.23652

>  <Cat>
S1281

>  <Name>
Aniracetam

>  <Synonyms>
RO 13-5057

>  <Target>
AMPA Receptor-kainate Receptor-NMDA Receptor

>  <Form>
free base

>  <CAS>
72432-10-1

>  <URL>
http://selleckchem.com/products/Aniracetam.html

$$$$
