Anle138b
 OpenBabel08302521243D

 32 35  0  0  0  0  0  0  0  0999 V2000
   -0.2206   -0.9665    0.0230 N   0  0  0  0  0  0  0  0  0  0  0  0
   -1.1037    0.0470    0.0469 N   0  0  0  0  0  0  0  0  0  0  0  0
   -0.3451    1.1524   -0.0068 C   0  0  0  0  0  0  0  0  0  0  0  0
    1.0304    0.8068   -0.0384 C   0  0  0  0  0  0  0  0  0  0  0  0
    1.0910   -0.5721   -0.0191 C   0  0  0  0  0  0  0  0  0  0  0  0
    2.2395   -1.4730   -0.0163 C   0  0  0  0  0  0  0  0  0  0  0  0
    3.4410   -1.0636    0.5808 C   0  0  0  0  0  0  0  0  0  0  0  0
    4.5604   -1.8946    0.5577 C   0  0  0  0  0  0  0  0  0  0  0  0
    4.5017   -3.1422   -0.0562 C   0  0  0  0  0  0  0  0  0  0  0  0
    3.3111   -3.5619   -0.6478 C   0  0  0  0  0  0  0  0  0  0  0  0
    2.1854   -2.7323   -0.6280 C   0  0  0  0  0  0  0  0  0  0  0  0
    6.1723   -1.3148    1.3580 Br  0  0  0  0  0  0  0  0  0  0  0  0
   -2.2427    6.3953    0.1139 O   0  0  0  0  0  0  0  0  0  0  0  0
   -1.1368    6.9400   -0.6362 C   0  0  0  0  0  0  0  0  0  0  0  0
   -0.2062    5.9386   -1.0962 O   0  0  0  0  0  0  0  0  0  0  0  0
   -0.7523    4.8176   -0.5536 C   0  0  0  0  0  0  0  0  0  0  0  0
   -1.9142    5.0759    0.1327 C   0  0  0  0  0  0  0  0  0  0  0  0
   -0.2267    3.5470   -0.6441 C   0  0  0  0  0  0  0  0  0  0  0  0
   -0.9082    2.5009   -0.0013 C   0  0  0  0  0  0  0  0  0  0  0  0
   -2.1135    2.7721    0.6851 C   0  0  0  0  0  0  0  0  0  0  0  0
   -2.6242    4.0740    0.7576 C   0  0  0  0  0  0  0  0  0  0  0  0
   -0.5836   -1.9127    0.0590 H   0  0  0  0  0  0  0  0  0  0  0  0
    1.8719    1.4836   -0.0639 H   0  0  0  0  0  0  0  0  0  0  0  0
    3.5062   -0.0938    1.0688 H   0  0  0  0  0  0  0  0  0  0  0  0
    5.3753   -3.7881   -0.0840 H   0  0  0  0  0  0  0  0  0  0  0  0
    3.2628   -4.5319   -1.1368 H   0  0  0  0  0  0  0  0  0  0  0  0
    1.2806   -3.0768   -1.1231 H   0  0  0  0  0  0  0  0  0  0  0  0
   -1.5316    7.4780   -1.5052 H   0  0  0  0  0  0  0  0  0  0  0  0
   -0.5959    7.6494    0.0012 H   0  0  0  0  0  0  0  0  0  0  0  0
    0.6893    3.3810   -1.1997 H   0  0  0  0  0  0  0  0  0  0  0  0
   -2.6460    1.9624    1.1818 H   0  0  0  0  0  0  0  0  0  0  0  0
   -3.5398    4.2877    1.2968 H   0  0  0  0  0  0  0  0  0  0  0  0
  1  2  1  0  0  0  0
  1  5  1  0  0  0  0
  1 22  1  0  0  0  0
  2  3  2  0  0  0  0
  3  4  1  0  0  0  0
  3 19  1  0  0  0  0
  4  5  2  0  0  0  0
  4 23  1  0  0  0  0
  5  6  1  0  0  0  0
  6  7  2  0  0  0  0
  6 11  1  0  0  0  0
  7  8  1  0  0  0  0
  7 24  1  0  0  0  0
  8  9  2  0  0  0  0
  8 12  1  0  0  0  0
  9 10  1  0  0  0  0
  9 25  1  0  0  0  0
 10 11  2  0  0  0  0
 10 26  1  0  0  0  0
 11 27  1  0  0  0  0
 13 14  1  0  0  0  0
 13 17  1  0  0  0  0
 14 15  1  0  0  0  0
 14 28  1  0  0  0  0
 14 29  1  0  0  0  0
 15 16  1  0  0  0  0
 16 17  2  0  0  0  0
 16 18  1  0  0  0  0
 17 21  1  0  0  0  0
 18 19  2  0  0  0  0
 18 30  1  0  0  0  0
 19 20  1  0  0  0  0
 20 21  2  0  0  0  0
 20 31  1  0  0  0  0
 21 32  1  0  0  0  0
M  END
>  <Mol_ID>
4930

>  <Formula>
C16H11BrN2O2

>  <MolWeight>
343.17474

>  <Cat>
S6782

>  <Name>
Anle138b

>  <Synonyms>
N/A

>  <Target>
Others

>  <Form>
Free Base

>  <CAS>
882697-00-9

>  <URL>
http://www.selleckchem.com/products/anle138b.html

$$$$
