Antineoplaston A10
 OpenBabel08302521273D

 32 33  0  0  0  0  0  0  0  0999 V2000
    1.4516    1.1975    0.3834 O   0  0  0  0  0  0  0  0  0  0  0  0
    0.8451   -3.1298    1.4638 O   0  0  0  0  0  0  0  0  0  0  0  0
   -2.1148    1.9813    3.7064 O   0  0  0  0  0  0  0  0  0  0  0  0
   -1.2523    1.0719    1.7874 N   0  0  0  0  0  0  0  0  0  0  0  0
    1.2558   -0.9373    1.0980 N   0  0  0  0  0  0  0  0  0  0  0  0
    0.0766    0.8445    2.3519 C   0  0  1  0  0  0  0  0  0  0  0  0
    0.0930   -0.1930    3.4738 C   0  0  0  0  0  0  0  0  0  0  0  0
   -0.2438   -1.5743    2.9345 C   0  0  0  0  0  0  0  0  0  0  0  0
    1.0297    0.4132    1.2321 C   0  0  0  0  0  0  0  0  0  0  0  0
    0.6700   -1.9594    1.7996 C   0  0  0  0  0  0  0  0  0  0  0  0
   -2.2471    1.6866    2.5215 C   0  0  0  0  0  0  0  0  0  0  0  0
   -3.5290    1.9667    1.7556 C   0  0  0  0  0  0  0  0  0  0  0  0
   -4.4935    0.8050    1.7398 C   0  0  0  0  0  0  0  0  0  0  0  0
   -5.0240    0.2945    2.9340 C   0  0  0  0  0  0  0  0  0  0  0  0
   -4.9134    0.2482    0.5234 C   0  0  0  0  0  0  0  0  0  0  0  0
   -5.9400   -0.7598    2.9113 C   0  0  0  0  0  0  0  0  0  0  0  0
   -5.8282   -0.8070    0.5030 C   0  0  0  0  0  0  0  0  0  0  0  0
   -6.3392   -1.3126    1.6962 C   0  0  0  0  0  0  0  0  0  0  0  0
   -1.3555    1.0428    0.7785 H   0  0  0  0  0  0  0  0  0  0  0  0
    1.8282   -1.2163    0.3133 H   0  0  0  0  0  0  0  0  0  0  0  0
    0.4431    1.7996    2.7476 H   0  0  0  0  0  0  0  0  0  0  0  0
    1.0933   -0.2159    3.9256 H   0  0  0  0  0  0  0  0  0  0  0  0
   -0.6097    0.0657    4.2719 H   0  0  0  0  0  0  0  0  0  0  0  0
   -0.1227   -2.3113    3.7368 H   0  0  0  0  0  0  0  0  0  0  0  0
   -1.2772   -1.6207    2.5777 H   0  0  0  0  0  0  0  0  0  0  0  0
   -4.0190    2.8368    2.2094 H   0  0  0  0  0  0  0  0  0  0  0  0
   -3.2680    2.2680    0.7339 H   0  0  0  0  0  0  0  0  0  0  0  0
   -4.7335    0.7210    3.8934 H   0  0  0  0  0  0  0  0  0  0  0  0
   -4.5430    0.6383   -0.4216 H   0  0  0  0  0  0  0  0  0  0  0  0
   -6.3476   -1.1457    3.8424 H   0  0  0  0  0  0  0  0  0  0  0  0
   -6.1489   -1.2299   -0.4457 H   0  0  0  0  0  0  0  0  0  0  0  0
   -7.0541   -2.1317    1.6789 H   0  0  0  0  0  0  0  0  0  0  0  0
  1  9  2  0  0  0  0
  2 10  2  0  0  0  0
  3 11  2  0  0  0  0
  4 11  1  0  0  0  0
  4 19  1  0  0  0  0
  5  9  1  0  0  0  0
  5 10  1  0  0  0  0
  5 20  1  0  0  0  0
  6  7  1  0  0  0  0
  6  9  1  0  0  0  0
  6 21  1  1  0  0  0
  6  4  1  0  0  0  0
  7  8  1  0  0  0  0
  7 22  1  0  0  0  0
  7 23  1  0  0  0  0
  8 10  1  0  0  0  0
  8 24  1  0  0  0  0
  8 25  1  0  0  0  0
 11 12  1  0  0  0  0
 12 13  1  0  0  0  0
 12 26  1  0  0  0  0
 12 27  1  0  0  0  0
 13 14  2  0  0  0  0
 13 15  1  0  0  0  0
 14 16  1  0  0  0  0
 14 28  1  0  0  0  0
 15 17  2  0  0  0  0
 15 29  1  0  0  0  0
 16 18  2  0  0  0  0
 16 30  1  0  0  0  0
 17 18  1  0  0  0  0
 17 31  1  0  0  0  0
 18 32  1  0  0  0  0
M  END
>  <Mol_ID>
5367

>  <Formula>
C13H14N2O3

>  <MolWeight>
246.26186

>  <Cat>
S0323

>  <Name>
Antineoplaston A10

>  <Synonyms>
N/A

>  <Target>
Ras

>  <Form>
Free Base

>  <CAS>
91531-30-5

>  <URL>
https://www.selleckchem.com/products/antineoplaston-a10.html

$$$$
