Antipyrine.cdx
 OpenBabel08302519503D

 26 27  0  0  0  0  0  0  0  0999 V2000
    0.9380    0.6694    0.3990 N   0  0  0  0  0  0  0  0  0  0  0  0
    0.9664   -0.6828   -0.0230 N   0  0  0  0  0  0  0  0  0  0  0  0
   -0.3233   -1.1045   -0.3374 C   0  0  0  0  0  0  0  0  0  0  0  0
   -1.1957    0.0756   -0.1709 C   0  0  0  0  0  0  0  0  0  0  0  0
   -0.3823    1.0841    0.1857 C   0  0  0  0  0  0  0  0  0  0  0  0
   -0.7389   -2.1966   -0.6821 O   0  0  0  0  0  0  0  0  0  0  0  0
    2.1209   -1.4773   -0.0167 C   0  0  0  0  0  0  0  0  0  0  0  0
    2.4051   -2.2733   -1.1324 C   0  0  0  0  0  0  0  0  0  0  0  0
    3.5982   -2.9924   -1.1961 C   0  0  0  0  0  0  0  0  0  0  0  0
    4.4832   -2.9681   -0.1189 C   0  0  0  0  0  0  0  0  0  0  0  0
    4.1820   -2.2154    1.0155 C   0  0  0  0  0  0  0  0  0  0  0  0
    3.0121   -1.4546    1.0601 C   0  0  0  0  0  0  0  0  0  0  0  0
   -0.7980    2.5155    0.2423 C   0  0  0  0  0  0  0  0  0  0  0  0
    2.0583    1.5283   -0.0078 C   0  0  0  0  0  0  0  0  0  0  0  0
   -2.2398    0.0851   -0.4104 H   0  0  0  0  0  0  0  0  0  0  0  0
    1.7268   -2.2889   -1.9833 H   0  0  0  0  0  0  0  0  0  0  0  0
    3.8371   -3.5657   -2.0882 H   0  0  0  0  0  0  0  0  0  0  0  0
    5.4064   -3.5408   -0.1637 H   0  0  0  0  0  0  0  0  0  0  0  0
    4.8582   -2.2215    1.8671 H   0  0  0  0  0  0  0  0  0  0  0  0
    2.7778   -0.8748    1.9485 H   0  0  0  0  0  0  0  0  0  0  0  0
   -0.4635    2.9855    1.1678 H   0  0  0  0  0  0  0  0  0  0  0  0
   -0.3688    3.0666   -0.6021 H   0  0  0  0  0  0  0  0  0  0  0  0
   -1.8848    2.6230    0.1815 H   0  0  0  0  0  0  0  0  0  0  0  0
    1.9083    1.8975   -1.0315 H   0  0  0  0  0  0  0  0  0  0  0  0
    2.1239    2.3852    0.6652 H   0  0  0  0  0  0  0  0  0  0  0  0
    3.0250    1.0194    0.0238 H   0  0  0  0  0  0  0  0  0  0  0  0
  1  2  1  0  0  0  0
  1  5  1  0  0  0  0
  1 14  1  0  0  0  0
  2  3  1  0  0  0  0
  2  7  1  0  0  0  0
  3  4  1  0  0  0  0
  3  6  2  0  0  0  0
  4  5  2  0  0  0  0
  4 15  1  0  0  0  0
  5 13  1  0  0  0  0
  7  8  2  0  0  0  0
  7 12  1  0  0  0  0
  8  9  1  0  0  0  0
  8 16  1  0  0  0  0
  9 10  2  0  0  0  0
  9 17  1  0  0  0  0
 10 11  1  0  0  0  0
 10 18  1  0  0  0  0
 11 12  2  0  0  0  0
 11 19  1  0  0  0  0
 12 20  1  0  0  0  0
 13 21  1  0  0  0  0
 13 22  1  0  0  0  0
 13 23  1  0  0  0  0
 14 24  1  0  0  0  0
 14 25  1  0  0  0  0
 14 26  1  0  0  0  0
M  END
>  <Mol_ID>
167

>  <Formula>
C11H12N2O

>  <MolWeight>
188.22578

>  <Cat>
S3173

>  <Name>
Antipyrine

>  <Synonyms>
Phenazone,Phenazon

>  <Target>
COX

>  <Form>
free base

>  <CAS>
60-80-0

>  <URL>
http://selleckchem.com/products/antipyrine.html

$$$$
