Apararenone
 OpenBabel08302521353D

 42 44  0  0  0  0  0  0  0  0999 V2000
    1.4034    0.2488    0.8875 O   0  0  0  0  0  0  0  0  0  0  0  0
    4.3703   -1.0392    1.3709 C   0  0  0  0  0  0  0  0  0  0  0  0
    2.4326   -2.3170    0.4789 C   0  0  0  0  0  0  0  0  0  0  0  0
    7.3681    0.4640   -3.9279 N   0  0  0  0  0  0  0  0  0  0  0  0
    7.0473    0.3295   -5.5803 S   0  0  0  0  0  0  0  0  0  0  0  0
    7.3058    2.0010   -6.1454 C   0  0  0  0  0  0  0  0  0  0  0  0
    8.1233   -0.4785   -6.1130 O   0  0  0  0  0  0  0  0  0  0  0  0
    5.6637   -0.0368   -5.7862 O   0  0  0  0  0  0  0  0  0  0  0  0
    2.4254    6.2140    2.3231 F   0  0  0  0  0  0  0  0  0  0  0  0
    3.1952    1.3117   -0.1719 N   0  0  0  0  0  0  0  0  0  0  0  0
    4.2508    1.1231   -1.1202 C   0  0  0  0  0  0  0  0  0  0  0  0
    2.4870    0.1998    0.3042 C   0  0  0  0  0  0  0  0  0  0  0  0
    4.5771   -0.1780   -1.5335 C   0  0  0  0  0  0  0  0  0  0  0  0
    4.9257    2.1927   -1.7337 C   0  0  0  0  0  0  0  0  0  0  0  0
    3.3251   -1.0941    0.2346 C   0  0  0  0  0  0  0  0  0  0  0  0
    5.5628   -0.4059   -2.5047 C   0  0  0  0  0  0  0  0  0  0  0  0
    3.9868   -1.3038   -1.0142 O   0  0  0  0  0  0  0  0  0  0  0  0
    5.9412    1.9671   -2.6692 C   0  0  0  0  0  0  0  0  0  0  0  0
    6.2743    0.6682   -3.0348 C   0  0  0  0  0  0  0  0  0  0  0  0
    2.9878    2.5824    0.4324 C   0  0  0  0  0  0  0  0  0  0  0  0
    4.0649    3.2463    1.0501 C   0  0  0  0  0  0  0  0  0  0  0  0
    1.7079    3.1444    0.5175 C   0  0  0  0  0  0  0  0  0  0  0  0
    3.8760    4.4725    1.6864 C   0  0  0  0  0  0  0  0  0  0  0  0
    1.5205    4.3776    1.1485 C   0  0  0  0  0  0  0  0  0  0  0  0
    2.6063    5.0317    1.7200 C   0  0  0  0  0  0  0  0  0  0  0  0
    3.8905   -0.8809    2.3436 H   0  0  0  0  0  0  0  0  0  0  0  0
    4.9561   -1.9634    1.4124 H   0  0  0  0  0  0  0  0  0  0  0  0
    5.0905   -0.2255    1.2304 H   0  0  0  0  0  0  0  0  0  0  0  0
    1.6951   -2.4319   -0.3212 H   0  0  0  0  0  0  0  0  0  0  0  0
    3.0284   -3.2377    0.4944 H   0  0  0  0  0  0  0  0  0  0  0  0
    1.8943   -2.2482    1.4320 H   0  0  0  0  0  0  0  0  0  0  0  0
    8.0046   -0.2893   -3.6617 H   0  0  0  0  0  0  0  0  0  0  0  0
    8.3319    2.2964   -5.9279 H   0  0  0  0  0  0  0  0  0  0  0  0
    7.1347    2.0195   -7.2239 H   0  0  0  0  0  0  0  0  0  0  0  0
    6.5888    2.6572   -5.6507 H   0  0  0  0  0  0  0  0  0  0  0  0
    4.6776    3.2262   -1.5070 H   0  0  0  0  0  0  0  0  0  0  0  0
    5.7798   -1.4236   -2.8184 H   0  0  0  0  0  0  0  0  0  0  0  0
    6.4782    2.8149   -3.0855 H   0  0  0  0  0  0  0  0  0  0  0  0
    5.0540    2.7939    1.0702 H   0  0  0  0  0  0  0  0  0  0  0  0
    0.8493    2.6350    0.0839 H   0  0  0  0  0  0  0  0  0  0  0  0
    4.7054    4.9832    2.1643 H   0  0  0  0  0  0  0  0  0  0  0  0
    0.5339    4.8262    1.2039 H   0  0  0  0  0  0  0  0  0  0  0  0
  1 12  2  0  0  0  0
  2 15  1  0  0  0  0
  2 26  1  0  0  0  0
  2 27  1  0  0  0  0
  2 28  1  0  0  0  0
  3 15  1  0  0  0  0
  3 29  1  0  0  0  0
  3 30  1  0  0  0  0
  3 31  1  0  0  0  0
  4  5  1  0  0  0  0
  4 19  1  0  0  0  0
  4 32  1  0  0  0  0
  5  6  1  0  0  0  0
  5  7  2  0  0  0  0
  5  8  2  0  0  0  0
  6 33  1  0  0  0  0
  6 34  1  0  0  0  0
  6 35  1  0  0  0  0
  9 25  1  0  0  0  0
 10 11  1  0  0  0  0
 10 12  1  0  0  0  0
 10 20  1  0  0  0  0
 11 13  2  0  0  0  0
 11 14  1  0  0  0  0
 12 15  1  0  0  0  0
 13 16  1  0  0  0  0
 13 17  1  0  0  0  0
 14 18  2  0  0  0  0
 14 36  1  0  0  0  0
 15 17  1  0  0  0  0
 16 19  2  0  0  0  0
 16 37  1  0  0  0  0
 18 19  1  0  0  0  0
 18 38  1  0  0  0  0
 20 21  2  0  0  0  0
 20 22  1  0  0  0  0
 21 23  1  0  0  0  0
 21 39  1  0  0  0  0
 22 24  2  0  0  0  0
 22 40  1  0  0  0  0
 23 25  2  0  0  0  0
 23 41  1  0  0  0  0
 24 25  1  0  0  0  0
 24 42  1  0  0  0  0
M  END
>  <Mol_ID>
6908

>  <Formula>
C17H17FN2O4S

>  <MolWeight>
364.3912832

>  <Cat>
E1239

>  <Name>
Apararenone

>  <Synonyms>
MT-3995

>  <Target>
Mineralocorticoid Receptor

>  <Form>
Free base

>  <CAS>
945966-46-1

>  <URL>
https://www.selleckchem.com/products/apararenone.html

$$$$
