Apixaban.cdx
 OpenBabel08302520323D

 59 63  0  0  0  0  0  0  0  0999 V2000
    2.2170   -0.5999    0.4007 N   0  0  0  0  0  0  0  0  0  0  0  0
    1.7435    0.6477    0.1730 C   0  0  0  0  0  0  0  0  0  0  0  0
    0.3388    0.6303    0.0534 C   0  0  0  0  0  0  0  0  0  0  0  0
   -0.0401   -0.6932    0.1780 C   0  0  0  0  0  0  0  0  0  0  0  0
    1.1309   -1.4182    0.2477 N   0  0  0  0  0  0  0  0  0  0  0  0
   -0.6422    1.7197   -0.1879 C   0  0  0  0  0  0  0  0  0  0  0  0
   -2.0550    1.2143    0.1268 C   0  0  0  0  0  0  0  0  0  0  0  0
   -2.2914   -0.1732   -0.2942 N   0  0  0  0  0  0  0  0  0  0  0  0
   -1.4123   -1.1673    0.1546 C   0  0  0  0  0  0  0  0  0  0  0  0
    1.3003   -2.8226    0.1209 C   0  0  0  0  0  0  0  0  0  0  0  0
    0.4537   -3.5643   -0.7118 C   0  0  0  0  0  0  0  0  0  0  0  0
    0.4796   -4.9593   -0.6908 C   0  0  0  0  0  0  0  0  0  0  0  0
    1.3762   -5.6253    0.1397 C   0  0  0  0  0  0  0  0  0  0  0  0
    2.2968   -4.8809    0.8875 C   0  0  0  0  0  0  0  0  0  0  0  0
    2.2786   -3.4800    0.8673 C   0  0  0  0  0  0  0  0  0  0  0  0
    1.4422   -6.9821    0.3052 O   0  0  0  0  0  0  0  0  0  0  0  0
    0.4401   -7.7484   -0.3565 C   0  0  0  0  0  0  0  0  0  0  0  0
    2.6236    1.8233    0.0686 C   0  0  0  0  0  0  0  0  0  0  0  0
    3.9577    1.5470    0.1721 N   0  0  0  0  0  0  0  0  0  0  0  0
   -1.7484   -2.3160    0.4094 O   0  0  0  0  0  0  0  0  0  0  0  0
   -3.3374   -0.4742   -1.2034 C   0  0  0  0  0  0  0  0  0  0  0  0
   -4.1282   -1.6175   -1.0649 C   0  0  0  0  0  0  0  0  0  0  0  0
   -5.1158   -1.9200   -2.0084 C   0  0  0  0  0  0  0  0  0  0  0  0
   -5.3310   -1.0834   -3.1088 C   0  0  0  0  0  0  0  0  0  0  0  0
   -4.5209    0.0455   -3.2602 C   0  0  0  0  0  0  0  0  0  0  0  0
   -3.5345    0.3472   -2.3178 C   0  0  0  0  0  0  0  0  0  0  0  0
   -6.3446   -1.3747   -4.0725 N   0  0  0  0  0  0  0  0  0  0  0  0
   -7.2306   -0.3643   -4.4576 C   0  0  0  0  0  0  0  0  0  0  0  0
   -8.2810   -0.7119   -5.4991 C   0  0  0  0  0  0  0  0  0  0  0  0
   -8.6038   -2.1862   -5.6406 C   0  0  0  0  0  0  0  0  0  0  0  0
   -7.3163   -2.9812   -5.7016 C   0  0  0  0  0  0  0  0  0  0  0  0
   -6.5793   -2.7841   -4.3886 C   0  0  0  0  0  0  0  0  0  0  0  0
   -7.1807    0.7980   -4.0465 O   0  0  0  0  0  0  0  0  0  0  0  0
    2.2148    2.9601   -0.1163 O   0  0  0  0  0  0  0  0  0  0  0  0
   -0.5864    2.0274   -1.2379 H   0  0  0  0  0  0  0  0  0  0  0  0
   -0.4252    2.5940    0.4357 H   0  0  0  0  0  0  0  0  0  0  0  0
   -2.8217    1.8948   -0.2592 H   0  0  0  0  0  0  0  0  0  0  0  0
   -2.1798    1.2035    1.2198 H   0  0  0  0  0  0  0  0  0  0  0  0
   -0.2590   -3.0820   -1.3772 H   0  0  0  0  0  0  0  0  0  0  0  0
   -0.2366   -5.4855   -1.3126 H   0  0  0  0  0  0  0  0  0  0  0  0
    3.0110   -5.3987    1.5235 H   0  0  0  0  0  0  0  0  0  0  0  0
    2.9732   -2.9269    1.4948 H   0  0  0  0  0  0  0  0  0  0  0  0
   -0.5691   -7.4390   -0.0601 H   0  0  0  0  0  0  0  0  0  0  0  0
    0.5650   -7.6913   -1.4430 H   0  0  0  0  0  0  0  0  0  0  0  0
    0.5633   -8.7941   -0.0602 H   0  0  0  0  0  0  0  0  0  0  0  0
    4.6299    2.2929    0.0662 H   0  0  0  0  0  0  0  0  0  0  0  0
    4.2552    0.5877    0.2841 H   0  0  0  0  0  0  0  0  0  0  0  0
   -4.0260   -2.2670   -0.1989 H   0  0  0  0  0  0  0  0  0  0  0  0
   -5.7464   -2.7847   -1.8255 H   0  0  0  0  0  0  0  0  0  0  0  0
   -4.6247    0.6851   -4.1338 H   0  0  0  0  0  0  0  0  0  0  0  0
   -2.8863    1.1981   -2.5089 H   0  0  0  0  0  0  0  0  0  0  0  0
   -9.2011   -0.1752   -5.2388 H   0  0  0  0  0  0  0  0  0  0  0  0
   -7.9237   -0.3143   -6.4561 H   0  0  0  0  0  0  0  0  0  0  0  0
   -9.2081   -2.5217   -4.7885 H   0  0  0  0  0  0  0  0  0  0  0  0
   -9.1993   -2.3525   -6.5443 H   0  0  0  0  0  0  0  0  0  0  0  0
   -7.5290   -4.0440   -5.8569 H   0  0  0  0  0  0  0  0  0  0  0  0
   -6.7003   -2.6406   -6.5430 H   0  0  0  0  0  0  0  0  0  0  0  0
   -7.1604   -3.2271   -3.5716 H   0  0  0  0  0  0  0  0  0  0  0  0
   -5.6124   -3.2990   -4.4508 H   0  0  0  0  0  0  0  0  0  0  0  0
  1  2  2  0  0  0  0
  2  3  1  0  0  0  0
  2 18  1  0  0  0  0
  3  4  2  0  0  0  0
  3  6  1  0  0  0  0
  4  5  1  0  0  0  0
  5  1  1  0  0  0  0
  5 10  1  0  0  0  0
  6  7  1  0  0  0  0
  6 35  1  0  0  0  0
  6 36  1  0  0  0  0
  7  8  1  0  0  0  0
  7 37  1  0  0  0  0
  7 38  1  0  0  0  0
  8  9  1  0  0  0  0
  8 21  1  0  0  0  0
  9  4  1  0  0  0  0
  9 20  2  0  0  0  0
 10 11  2  0  0  0  0
 11 12  1  0  0  0  0
 11 39  1  0  0  0  0
 12 13  2  0  0  0  0
 12 40  1  0  0  0  0
 13 14  1  0  0  0  0
 13 16  1  0  0  0  0
 14 15  2  0  0  0  0
 14 41  1  0  0  0  0
 15 10  1  0  0  0  0
 15 42  1  0  0  0  0
 16 17  1  0  0  0  0
 17 43  1  0  0  0  0
 17 44  1  0  0  0  0
 17 45  1  0  0  0  0
 18 19  1  0  0  0  0
 18 34  2  0  0  0  0
 19 46  1  0  0  0  0
 19 47  1  0  0  0  0
 21 22  2  0  0  0  0
 22 23  1  0  0  0  0
 22 48  1  0  0  0  0
 23 24  2  0  0  0  0
 23 49  1  0  0  0  0
 24 25  1  0  0  0  0
 24 27  1  0  0  0  0
 25 26  2  0  0  0  0
 25 50  1  0  0  0  0
 26 21  1  0  0  0  0
 26 51  1  0  0  0  0
 27 28  1  0  0  0  0
 28 29  1  0  0  0  0
 28 33  2  0  0  0  0
 29 30  1  0  0  0  0
 29 52  1  0  0  0  0
 29 53  1  0  0  0  0
 30 31  1  0  0  0  0
 30 54  1  0  0  0  0
 30 55  1  0  0  0  0
 31 32  1  0  0  0  0
 31 56  1  0  0  0  0
 31 57  1  0  0  0  0
 32 27  1  0  0  0  0
 32 58  1  0  0  0  0
 32 59  1  0  0  0  0
M  END
>  <Mol_ID>
338

>  <Formula>
C25H25N5O4

>  <MolWeight>
459.4971

>  <Cat>
S1593

>  <Name>
Apixaban (BMS 562247-01)

>  <Synonyms>
BMS 562247-01

>  <Target>
Factor Xa

>  <Form>
free base

>  <CAS>
503612-47-3

>  <URL>
http://selleckchem.com/products/Apixaban(BMS-562247-01).html

$$$$
