Apostatin-1
 OpenBabel08302521313D

 51 53  0  0  0  0  0  0  0  0999 V2000
    0.4636    0.5767    1.2008 C   0  0  0  0  0  0  0  0  0  0  0  0
   -0.3042   -0.5766    1.3876 C   0  0  0  0  0  0  0  0  0  0  0  0
   -0.7210   -1.3163    0.2923 C   0  0  0  0  0  0  0  0  0  0  0  0
   -0.3592   -0.9046   -0.9850 C   0  0  0  0  0  0  0  0  0  0  0  0
    0.4060    0.2574   -1.1678 C   0  0  0  0  0  0  0  0  0  0  0  0
    0.8123    1.0532   -0.0788 C   0  0  0  0  0  0  0  0  0  0  0  0
    1.6956    2.3074   -0.2631 C   0  0  3  0  0  0  0  0  0  0  0  0
    1.5914    3.1230   -1.9302 S   0  0  0  0  0  0  0  0  0  0  0  0
    1.6571    3.3784    0.8729 C   0  0  0  0  0  0  0  0  0  0  0  0
   -0.0323    3.7364   -1.9227 C   0  0  0  0  0  0  0  0  0  0  0  0
    2.0364    4.6688    0.5342 N   0  0  0  0  0  0  0  0  0  0  0  0
    1.4407    3.1185    2.0574 O   0  0  0  0  0  0  0  0  0  0  0  0
    1.8907    5.7535    1.5011 C   0  0  0  0  0  0  0  0  0  0  0  0
   -0.5658    4.3418   -3.0289 N   0  0  0  0  0  0  0  0  0  0  0  0
   -1.9527    4.6441   -2.7537 C   0  0  0  0  0  0  0  0  0  0  0  0
   -2.0528    4.3262   -1.2580 C   0  0  0  0  0  0  0  0  0  0  0  0
   -0.7931    3.6449   -0.8722 N   0  0  0  0  0  0  0  0  0  0  0  0
    0.1589    5.1396   -3.9909 C   0  0  0  0  0  0  0  0  0  0  0  0
    0.4370    6.2492    1.5134 C   0  0  0  0  0  0  0  0  0  0  0  0
    0.2236    7.5142    2.3397 C   0  0  0  0  0  0  0  0  0  0  0  0
    0.4148    8.7898    1.5230 C   0  0  0  0  0  0  0  0  0  0  0  0
    1.8444    9.0858    1.0782 C   0  0  0  0  0  0  0  0  0  0  0  0
    2.5591    7.9563    0.3360 C   0  0  0  0  0  0  0  0  0  0  0  0
    2.9651    6.8164    1.2649 C   0  0  0  0  0  0  0  0  0  0  0  0
    0.7795    1.0827    2.1074 H   0  0  0  0  0  0  0  0  0  0  0  0
   -0.5658   -0.8867    2.3963 H   0  0  0  0  0  0  0  0  0  0  0  0
   -1.3154   -2.2132    0.4370 H   0  0  0  0  0  0  0  0  0  0  0  0
   -0.6677   -1.4890   -1.8469 H   0  0  0  0  0  0  0  0  0  0  0  0
    0.6736    0.5201   -2.1882 H   0  0  0  0  0  0  0  0  0  0  0  0
    2.7252    1.9254   -0.2289 H   0  0  0  0  0  0  0  0  0  0  0  0
    2.0482    4.8923   -0.4536 H   0  0  0  0  0  0  0  0  0  0  0  0
    2.0973    5.3288    2.4923 H   0  0  0  0  0  0  0  0  0  0  0  0
   -2.2312    5.6800   -2.9634 H   0  0  0  0  0  0  0  0  0  0  0  0
   -2.5987    3.9761   -3.3377 H   0  0  0  0  0  0  0  0  0  0  0  0
   -2.1473    5.2471   -0.6744 H   0  0  0  0  0  0  0  0  0  0  0  0
   -2.9159    3.6878   -1.0422 H   0  0  0  0  0  0  0  0  0  0  0  0
    0.7997    5.8706   -3.4875 H   0  0  0  0  0  0  0  0  0  0  0  0
    0.7784    4.5086   -4.6349 H   0  0  0  0  0  0  0  0  0  0  0  0
   -0.5265    5.6953   -4.6415 H   0  0  0  0  0  0  0  0  0  0  0  0
    0.0692    6.3993    0.4898 H   0  0  0  0  0  0  0  0  0  0  0  0
   -0.1943    5.4529    1.9307 H   0  0  0  0  0  0  0  0  0  0  0  0
   -0.8117    7.5103    2.7040 H   0  0  0  0  0  0  0  0  0  0  0  0
    0.8638    7.5178    3.2297 H   0  0  0  0  0  0  0  0  0  0  0  0
   -0.2376    8.7571    0.6416 H   0  0  0  0  0  0  0  0  0  0  0  0
    0.0671    9.6385    2.1258 H   0  0  0  0  0  0  0  0  0  0  0  0
    1.8155    9.9636    0.4207 H   0  0  0  0  0  0  0  0  0  0  0  0
    2.4387    9.3827    1.9515 H   0  0  0  0  0  0  0  0  0  0  0  0
    1.9626    7.5945   -0.5088 H   0  0  0  0  0  0  0  0  0  0  0  0
    3.4781    8.3772   -0.0908 H   0  0  0  0  0  0  0  0  0  0  0  0
    3.2653    7.2334    2.2347 H   0  0  0  0  0  0  0  0  0  0  0  0
    3.8661    6.3333    0.8642 H   0  0  0  0  0  0  0  0  0  0  0  0
  1  2  2  0  0  0  0
  1 25  1  0  0  0  0
  2  3  1  0  0  0  0
  2 26  1  0  0  0  0
  3  4  2  0  0  0  0
  3 27  1  0  0  0  0
  4  5  1  0  0  0  0
  4 28  1  0  0  0  0
  5  6  2  0  0  0  0
  5 29  1  0  0  0  0
  6  1  1  0  0  0  0
  6  7  1  0  0  0  0
  7  8  1  0  0  0  0
  7  9  1  0  0  0  0
  7 30  1  0  0  0  0
  8 10  1  0  0  0  0
  9 11  1  0  0  0  0
  9 12  2  0  0  0  0
 10 14  1  0  0  0  0
 11 13  1  0  0  0  0
 11 31  1  0  0  0  0
 13 19  1  0  0  0  0
 13 32  1  0  0  0  0
 14 15  1  0  0  0  0
 14 18  1  0  0  0  0
 15 16  1  0  0  0  0
 15 33  1  0  0  0  0
 15 34  1  0  0  0  0
 16 17  1  0  0  0  0
 16 35  1  0  0  0  0
 16 36  1  0  0  0  0
 17 10  2  0  0  0  0
 18 37  1  0  0  0  0
 18 38  1  0  0  0  0
 18 39  1  0  0  0  0
 19 20  1  0  0  0  0
 19 40  1  0  0  0  0
 19 41  1  0  0  0  0
 20 21  1  0  0  0  0
 20 42  1  0  0  0  0
 20 43  1  0  0  0  0
 21 22  1  0  0  0  0
 21 44  1  0  0  0  0
 21 45  1  0  0  0  0
 22 23  1  0  0  0  0
 22 46  1  0  0  0  0
 22 47  1  0  0  0  0
 23 24  1  0  0  0  0
 23 48  1  0  0  0  0
 23 49  1  0  0  0  0
 24 13  1  0  0  0  0
 24 50  1  0  0  0  0
 24 51  1  0  0  0  0
M  END
>  <Mol_ID>
5808

>  <Formula>
C19H27N3OS

>  <MolWeight>
345.50218

>  <Cat>
S9705

>  <Name>
Apostatin-1

>  <Synonyms>
Apt-1

>  <Target>
TRADD

>  <Form>
Free Base

>  <CAS>
2559703-06-7

>  <URL>
http://www.selleckchem.com/products/apostatin-1.html

$$$$
