APRISO (mesalamine).cdx
 OpenBabel08302520403D

 18 18  0  0  0  0  0  0  0  0999 V2000
   -0.6876    1.2274   -0.0075 C   0  0  0  0  0  0  0  0  0  0  0  0
    0.7174    1.2196    0.0373 C   0  0  0  0  0  0  0  0  0  0  0  0
    1.3847   -0.0116    0.0483 C   0  0  0  0  0  0  0  0  0  0  0  0
    0.6682   -1.2071    0.0111 C   0  0  0  0  0  0  0  0  0  0  0  0
   -0.7275   -1.1758   -0.0307 C   0  0  0  0  0  0  0  0  0  0  0  0
   -1.4196    0.0364    0.0065 C   0  0  0  0  0  0  0  0  0  0  0  0
    1.4068    2.5443    0.0572 C   0  0  0  0  0  0  0  0  0  0  0  0
    2.7547    2.4928    0.0961 O   0  0  0  0  0  0  0  0  0  0  0  0
    0.7974    3.6030    0.0459 O   0  0  0  0  0  0  0  0  0  0  0  0
    2.7561   -0.0555    0.0772 O   0  0  0  0  0  0  0  0  0  0  0  0
   -2.8051    0.0559   -0.1795 N   0  0  0  0  0  0  0  0  0  0  0  0
   -1.2146    2.1795   -0.0543 H   0  0  0  0  0  0  0  0  0  0  0  0
    1.1692   -2.1704   -0.0015 H   0  0  0  0  0  0  0  0  0  0  0  0
   -1.2757   -2.1128   -0.0957 H   0  0  0  0  0  0  0  0  0  0  0  0
    3.0919    1.5692    0.1024 H   0  0  0  0  0  0  0  0  0  0  0  0
    3.0372   -0.9892    0.0312 H   0  0  0  0  0  0  0  0  0  0  0  0
   -3.2586    0.9048    0.1471 H   0  0  0  0  0  0  0  0  0  0  0  0
   -3.2850   -0.7812    0.1358 H   0  0  0  0  0  0  0  0  0  0  0  0
  1  2  2  0  0  0  0
  1 12  1  0  0  0  0
  2  3  1  0  0  0  0
  2  7  1  0  0  0  0
  3  4  2  0  0  0  0
  3 10  1  0  0  0  0
  4  5  1  0  0  0  0
  4 13  1  0  0  0  0
  5  6  2  0  0  0  0
  5 14  1  0  0  0  0
  6  1  1  0  0  0  0
  6 11  1  0  0  0  0
  7  8  1  0  0  0  0
  7  9  2  0  0  0  0
  8 15  1  0  0  0  0
 10 16  1  0  0  0  0
 11 17  1  0  0  0  0
 11 18  1  0  0  0  0
M  END
>  <Mol_ID>
389

>  <Formula>
C7H7NO3

>  <MolWeight>
153.13538

>  <Cat>
S1681

>  <Name>
Mesalamine (5-ASA)

>  <Synonyms>
5-Aminosalicylic acid, 5-ASA, Mesalazine, Apriso, Asacol, Pentasa, Canasa

>  <Target>
Immunology & Inflammation related,I¦ÊB/IKK

>  <Form>
free base

>  <CAS>
89-57-6

>  <URL>
http://selleckchem.com/products/Mesalamine(Lialda).html

$$$$
