Apronal
 OpenBabel08302520403D

 29 28  0  0  0  0  0  0  0  0999 V2000
    0.8359    0.0039   -0.0940 C   0  0  3  0  0  0  0  0  0  0  0  0
    0.5804    1.2609   -0.9375 C   0  0  0  0  0  0  0  0  0  0  0  0
    0.3267   -1.3059   -0.7358 C   0  0  0  0  0  0  0  0  0  0  0  0
    0.3378    0.1705    1.3738 C   0  0  0  0  0  0  0  0  0  0  0  0
   -0.5828    1.3030   -1.6775 N   0  0  0  0  0  0  0  0  0  0  0  0
    1.3509    2.2263   -0.8495 O   0  0  0  0  0  0  0  0  0  0  0  0
    0.9282   -1.5831   -2.0908 C   0  0  0  0  0  0  0  0  0  0  0  0
    1.0571    1.3032    2.1237 C   0  0  0  0  0  0  0  0  0  0  0  0
   -1.1740    0.3597    1.5053 C   0  0  0  0  0  0  0  0  0  0  0  0
   -0.9879    2.2812   -2.5414 C   0  0  0  0  0  0  0  0  0  0  0  0
    0.2213   -1.7197   -3.2214 C   0  0  0  0  0  0  0  0  0  0  0  0
   -0.2673    3.4190   -2.5534 N   0  0  0  0  0  0  0  0  0  0  0  0
   -1.9600    2.1209   -3.2747 O   0  0  0  0  0  0  0  0  0  0  0  0
    1.9321   -0.0854   -0.0518 H   0  0  0  0  0  0  0  0  0  0  0  0
    0.5918   -2.1476   -0.0860 H   0  0  0  0  0  0  0  0  0  0  0  0
   -0.7670   -1.3129   -0.8046 H   0  0  0  0  0  0  0  0  0  0  0  0
    0.5914   -0.7556    1.9100 H   0  0  0  0  0  0  0  0  0  0  0  0
   -1.1415    0.4695   -1.7776 H   0  0  0  0  0  0  0  0  0  0  0  0
    2.0096   -1.6987   -2.1360 H   0  0  0  0  0  0  0  0  0  0  0  0
    0.9603    2.2664    1.6168 H   0  0  0  0  0  0  0  0  0  0  0  0
    0.6397    1.4295    3.1294 H   0  0  0  0  0  0  0  0  0  0  0  0
    2.1224    1.0787    2.2385 H   0  0  0  0  0  0  0  0  0  0  0  0
   -1.7188   -0.5096    1.1278 H   0  0  0  0  0  0  0  0  0  0  0  0
   -1.4533    0.4804    2.5591 H   0  0  0  0  0  0  0  0  0  0  0  0
   -1.5200    1.2498    0.9726 H   0  0  0  0  0  0  0  0  0  0  0  0
    0.7199   -1.9323   -4.1629 H   0  0  0  0  0  0  0  0  0  0  0  0
   -0.8600   -1.6328   -3.2491 H   0  0  0  0  0  0  0  0  0  0  0  0
   -0.5507    4.1894   -3.1394 H   0  0  0  0  0  0  0  0  0  0  0  0
    0.4851    3.5449   -1.8826 H   0  0  0  0  0  0  0  0  0  0  0  0
  1  2  1  0  0  0  0
  1  3  1  0  0  0  0
  1  4  1  0  0  0  0
  1 14  1  0  0  0  0
  2  5  1  0  0  0  0
  2  6  2  0  0  0  0
  3  7  1  0  0  0  0
  3 15  1  0  0  0  0
  3 16  1  0  0  0  0
  4  8  1  0  0  0  0
  4  9  1  0  0  0  0
  4 17  1  0  0  0  0
  5 10  1  0  0  0  0
  5 18  1  0  0  0  0
  7 11  2  0  0  0  0
  7 19  1  0  0  0  0
  8 20  1  0  0  0  0
  8 21  1  0  0  0  0
  8 22  1  0  0  0  0
  9 23  1  0  0  0  0
  9 24  1  0  0  0  0
  9 25  1  0  0  0  0
 10 12  1  0  0  0  0
 10 13  2  0  0  0  0
 11 26  1  0  0  0  0
 11 27  1  0  0  0  0
 12 28  1  0  0  0  0
 12 29  1  0  0  0  0
M  END
>  <Mol_ID>
3763

>  <Formula>
C9H16N2O2

>  <MolWeight>
184.23554

>  <Cat>
S6450

>  <Name>
Apronal

>  <Synonyms>
Apronalide, Allylisopropylacetylurea, Allylisopropylacetylcarbamide

>  <Target>
Others

>  <Form>
Free Base

>  <CAS>
528-92-7

>  <URL>
http://www.selleck.cn/products/apronal.html

$$$$
