APY29
 OpenBabel08302521223D

 41 45  0  0  0  0  0  0  0  0999 V2000
    0.1323    1.2307   -0.0077 C   0  0  0  0  0  0  0  0  0  0  0  0
    1.2691    0.5166    0.0750 N   0  0  0  0  0  0  0  0  0  0  0  0
    1.1426   -0.8256    0.1192 C   0  0  0  0  0  0  0  0  0  0  0  0
   -0.0934   -1.4488    0.0546 C   0  0  0  0  0  0  0  0  0  0  0  0
   -1.1904   -0.6439    0.0001 C   0  0  0  0  0  0  0  0  0  0  0  0
   -1.0978    0.6848   -0.0355 N   0  0  0  0  0  0  0  0  0  0  0  0
    0.2318    2.6209   -0.0600 N   0  0  0  0  0  0  0  0  0  0  0  0
    2.3143   -1.6090    0.1886 N   0  0  0  0  0  0  0  0  0  0  0  0
    1.9790   -4.5380    1.9367 N   0  0  0  0  0  0  0  0  0  0  0  0
    1.5998   -3.2745    1.7417 N   0  0  0  0  0  0  0  0  0  0  0  0
    2.3990   -2.8304    0.7655 C   0  0  0  0  0  0  0  0  0  0  0  0
    3.3088   -3.8349    0.3512 C   0  0  0  0  0  0  0  0  0  0  0  0
    2.9691   -4.9408    1.0964 C   0  0  0  0  0  0  0  0  0  0  0  0
    3.5503   -6.3321    0.9999 C   0  0  0  0  0  0  0  0  0  0  0  0
    2.6365   -7.5143    1.2628 C   0  0  0  0  0  0  0  0  0  0  0  0
    3.6625   -7.1398    2.2769 C   0  0  0  0  0  0  0  0  0  0  0  0
   -4.1906    5.0919   -3.0642 C   0  0  0  0  0  0  0  0  0  0  0  0
   -3.7004    5.9495   -2.1977 N   0  0  0  0  0  0  0  0  0  0  0  0
   -2.6607    5.2910   -1.5853 C   0  0  0  0  0  0  0  0  0  0  0  0
   -2.5214    4.0115   -2.1027 C   0  0  0  0  0  0  0  0  0  0  0  0
   -3.5071    3.9104   -3.0475 N   0  0  0  0  0  0  0  0  0  0  0  0
   -1.7904    5.7103   -0.5685 C   0  0  0  0  0  0  0  0  0  0  0  0
   -0.8080    4.8159   -0.1034 C   0  0  0  0  0  0  0  0  0  0  0  0
   -0.6883    3.5206   -0.6280 C   0  0  0  0  0  0  0  0  0  0  0  0
   -1.5603    3.1096   -1.6555 C   0  0  0  0  0  0  0  0  0  0  0  0
   -0.2021   -2.5243    0.0549 H   0  0  0  0  0  0  0  0  0  0  0  0
   -2.1942   -1.0516   -0.0220 H   0  0  0  0  0  0  0  0  0  0  0  0
    1.1721    2.9486    0.0899 H   0  0  0  0  0  0  0  0  0  0  0  0
    3.1283   -1.0066    0.1861 H   0  0  0  0  0  0  0  0  0  0  0  0
    1.4909   -5.0841    2.6380 H   0  0  0  0  0  0  0  0  0  0  0  0
    4.0462   -3.7767   -0.4364 H   0  0  0  0  0  0  0  0  0  0  0  0
    4.3247   -6.4705    0.2517 H   0  0  0  0  0  0  0  0  0  0  0  0
    1.5913   -7.3429    1.4945 H   0  0  0  0  0  0  0  0  0  0  0  0
    2.8006   -8.4202    0.6884 H   0  0  0  0  0  0  0  0  0  0  0  0
    4.5284   -7.7840    2.3840 H   0  0  0  0  0  0  0  0  0  0  0  0
    3.3304   -6.7078    3.2119 H   0  0  0  0  0  0  0  0  0  0  0  0
   -5.0324    5.2626   -3.7215 H   0  0  0  0  0  0  0  0  0  0  0  0
   -3.7018    3.0971   -3.6144 H   0  0  0  0  0  0  0  0  0  0  0  0
   -1.8978    6.6994   -0.1375 H   0  0  0  0  0  0  0  0  0  0  0  0
   -0.1652    5.1316    0.7148 H   0  0  0  0  0  0  0  0  0  0  0  0
   -1.4927    2.1167   -2.0864 H   0  0  0  0  0  0  0  0  0  0  0  0
  1  2  2  0  0  0  0
  1  6  1  0  0  0  0
  1  7  1  0  0  0  0
  2  3  1  0  0  0  0
  3  4  2  0  0  0  0
  3  8  1  0  0  0  0
  4  5  1  0  0  0  0
  4 26  1  0  0  0  0
  5  6  2  0  0  0  0
  5 27  1  0  0  0  0
  7 24  1  0  0  0  0
  7 28  1  0  0  0  0
  8 11  1  0  0  0  0
  8 29  1  0  0  0  0
  9 10  1  0  0  0  0
  9 13  1  0  0  0  0
  9 30  1  0  0  0  0
 10 11  2  0  0  0  0
 11 12  1  0  0  0  0
 12 13  2  0  0  0  0
 12 31  1  0  0  0  0
 13 14  1  0  0  0  0
 14 15  1  0  0  0  0
 14 16  1  0  0  0  0
 14 32  1  0  0  0  0
 15 16  1  0  0  0  0
 15 33  1  0  0  0  0
 15 34  1  0  0  0  0
 16 35  1  0  0  0  0
 16 36  1  0  0  0  0
 17 18  2  0  0  0  0
 17 21  1  0  0  0  0
 17 37  1  0  0  0  0
 18 19  1  0  0  0  0
 19 20  2  0  0  0  0
 19 22  1  0  0  0  0
 20 21  1  0  0  0  0
 20 25  1  0  0  0  0
 21 38  1  0  0  0  0
 22 23  2  0  0  0  0
 22 39  1  0  0  0  0
 23 24  1  0  0  0  0
 23 40  1  0  0  0  0
 24 25  2  0  0  0  0
 25 41  1  0  0  0  0
M  END
>  <Mol_ID>
4745

>  <Formula>
C17H16N8

>  <MolWeight>
332.36254

>  <Cat>
S6623

>  <Name>
APY29

>  <Synonyms>
N/A

>  <Target>
IRE1

>  <Form>
Free Base

>  <CAS>
1216665-49-4

>  <URL>
http://www.selleck.cn/products/apy29.html

$$$$
