Aristolochic acid C
 OpenBabel08302521493D

 33 36  0  0  0  0  0  0  0  0999 V2000
    0.9739   -0.1449   -0.3052 N   0  3  0  0  0  0  0  0  0  0  0  0
    0.5669    0.6128   -1.1999 O   0  5  0  0  0  0  0  0  0  0  0  0
    0.3104   -1.0316    0.2471 O   0  0  0  0  0  0  0  0  0  0  0  0
    1.0013    2.5376    0.9965 C   0  0  0  0  0  0  0  0  0  0  0  0
    0.2669    3.5769    0.5520 O   0  0  0  0  0  0  0  0  0  0  0  0
    0.5959    1.7254    1.8060 O   0  0  0  0  0  0  0  0  0  0  0  0
    8.5962   -1.4541    0.3947 O   0  0  0  0  0  0  0  0  0  0  0  0
    4.4688    1.1840    0.1323 C   0  0  0  0  0  0  0  0  0  0  0  0
    3.0393    1.2047    0.2085 C   0  0  0  0  0  0  0  0  0  0  0  0
    5.1920   -0.0785    0.1129 C   0  0  0  0  0  0  0  0  0  0  0  0
    5.0950    2.4487    0.0802 C   0  0  0  0  0  0  0  0  0  0  0  0
    2.3977   -0.0601    0.0218 C   0  0  0  0  0  0  0  0  0  0  0  0
    2.3863    2.4825    0.4650 C   0  0  0  0  0  0  0  0  0  0  0  0
    4.4759   -1.2956    0.0007 C   0  0  0  0  0  0  0  0  0  0  0  0
    6.5987   -0.2079    0.2407 C   0  0  0  0  0  0  0  0  0  0  0  0
    4.4265    3.6445    0.2163 C   0  0  0  0  0  0  0  0  0  0  0  0
    6.4271    2.6809   -0.1382 O   0  0  0  0  0  0  0  0  0  0  0  0
    3.0918   -1.2724   -0.0840 C   0  0  0  0  0  0  0  0  0  0  0  0
    3.0841    3.6953    0.4632 C   0  0  0  0  0  0  0  0  0  0  0  0
    5.1418   -2.5349   -0.0386 C   0  0  0  0  0  0  0  0  0  0  0  0
    7.2444   -1.4446    0.2337 C   0  0  0  0  0  0  0  0  0  0  0  0
    5.2331    4.7353    0.1346 O   0  0  0  0  0  0  0  0  0  0  0  0
    6.5041    4.1150   -0.1151 C   0  0  0  0  0  0  0  0  0  0  0  0
    6.5277   -2.6132    0.0794 C   0  0  0  0  0  0  0  0  0  0  0  0
    0.6425    4.0756   -0.1994 H   0  0  0  0  0  0  0  0  0  0  0  0
    8.9036   -2.3750    0.4316 H   0  0  0  0  0  0  0  0  0  0  0  0
    7.2346    0.6586    0.3915 H   0  0  0  0  0  0  0  0  0  0  0  0
    2.5393   -2.1996   -0.2372 H   0  0  0  0  0  0  0  0  0  0  0  0
    2.6164    4.6455    0.6956 H   0  0  0  0  0  0  0  0  0  0  0  0
    4.5787   -3.4635   -0.1472 H   0  0  0  0  0  0  0  0  0  0  0  0
    6.8847    4.4627   -1.0827 H   0  0  0  0  0  0  0  0  0  0  0  0
    7.2063    4.4173    0.6692 H   0  0  0  0  0  0  0  0  0  0  0  0
    7.0133   -3.5821    0.0613 H   0  0  0  0  0  0  0  0  0  0  0  0
  1  2  1  0  0  0  0
  1  3  2  0  0  0  0
  1 12  1  0  0  0  0
  4  5  1  0  0  0  0
  4  6  2  0  0  0  0
  4 13  1  0  0  0  0
  5 25  1  0  0  0  0
  7 21  1  0  0  0  0
  7 26  1  0  0  0  0
  8  9  1  0  0  0  0
  8 10  2  0  0  0  0
  8 11  1  0  0  0  0
  9 12  2  0  0  0  0
  9 13  1  0  0  0  0
 10 14  1  0  0  0  0
 10 15  1  0  0  0  0
 11 16  2  0  0  0  0
 11 17  1  0  0  0  0
 12 18  1  0  0  0  0
 13 19  2  0  0  0  0
 14 18  2  0  0  0  0
 14 20  1  0  0  0  0
 15 21  2  0  0  0  0
 15 27  1  0  0  0  0
 16 19  1  0  0  0  0
 16 22  1  0  0  0  0
 17 23  1  0  0  0  0
 18 28  1  0  0  0  0
 19 29  1  0  0  0  0
 20 24  2  0  0  0  0
 20 30  1  0  0  0  0
 21 24  1  0  0  0  0
 22 23  1  0  0  0  0
 23 31  1  0  0  0  0
 23 32  1  0  0  0  0
 24 33  1  0  0  0  0
M  CHG  2   1   1   2  -1
M  END
>  <Mol_ID>
9797

>  <Formula>
C16H9NO7

>  <MolWeight>
327.24516

>  <Cat>
E2331

>  <Name>
Aristolochic acid C

>  <Synonyms>
NA

>  <Target>
DNA adducts

>  <Form>
Free Base

>  <CAS>
4849-90-5

>  <URL>
https://www.selleckchem.com/products/aristolochic-acid-c.html

$$$$
