Aristolochic acid A
 OpenBabel08302521223D

 36 39  0  0  0  0  0  0  0  0999 V2000
    0.2159    0.3478    0.0298 C   0  0  0  0  0  0  0  0  0  0  0  0
    0.3705    1.7702    0.0666 C   0  0  0  0  0  0  0  0  0  0  0  0
   -1.1114   -0.2602    0.0254 C   0  0  0  0  0  0  0  0  0  0  0  0
    1.4199   -0.3930   -0.0038 C   0  0  0  0  0  0  0  0  0  0  0  0
   -0.8294    2.5171   -0.1283 C   0  0  0  0  0  0  0  0  0  0  0  0
    1.7048    2.3099    0.2933 C   0  0  0  0  0  0  0  0  0  0  0  0
   -2.2685    0.5440   -0.1204 C   0  0  0  0  0  0  0  0  0  0  0  0
   -1.3483   -1.6476    0.1969 C   0  0  0  0  0  0  0  0  0  0  0  0
    2.6737    0.1670    0.1076 C   0  0  0  0  0  0  0  0  0  0  0  0
    1.5313   -1.7472   -0.1822 O   0  0  0  0  0  0  0  0  0  0  0  0
   -2.0979    1.9280   -0.2308 C   0  0  0  0  0  0  0  0  0  0  0  0
   -0.7937    3.9363   -0.4801 N   0  3  0  0  0  0  0  0  0  0  0  0
    2.8500    1.5052    0.3083 C   0  0  0  0  0  0  0  0  0  0  0  0
    1.9043    3.7015    0.7712 C   0  0  0  0  0  0  0  0  0  0  0  0
   -3.5707   -0.0342   -0.1647 C   0  0  0  0  0  0  0  0  0  0  0  0
   -2.6251   -2.2116    0.1917 C   0  0  0  0  0  0  0  0  0  0  0  0
    3.6861   -0.7373    0.0489 O   0  0  0  0  0  0  0  0  0  0  0  0
    2.9530   -1.9528   -0.1592 C   0  0  0  0  0  0  0  0  0  0  0  0
   -0.0222    4.2570   -1.3980 O   0  0  0  0  0  0  0  0  0  0  0  0
   -1.5979    4.6886    0.0845 O   0  5  0  0  0  0  0  0  0  0  0  0
    2.9990    4.3177    0.2846 O   0  0  0  0  0  0  0  0  0  0  0  0
    1.1510    4.2077    1.5856 O   0  0  0  0  0  0  0  0  0  0  0  0
   -3.7335   -1.4086   -0.0024 C   0  0  0  0  0  0  0  0  0  0  0  0
   -4.6190    0.8340   -0.3662 O   0  0  0  0  0  0  0  0  0  0  0  0
   -5.9283    0.2844   -0.4539 C   0  0  0  0  0  0  0  0  0  0  0  0
   -0.5317   -2.3382    0.3830 H   0  0  0  0  0  0  0  0  0  0  0  0
   -2.9665    2.5650   -0.3994 H   0  0  0  0  0  0  0  0  0  0  0  0
    3.8412    1.8920    0.5193 H   0  0  0  0  0  0  0  0  0  0  0  0
   -2.7429   -3.2824    0.3450 H   0  0  0  0  0  0  0  0  0  0  0  0
    3.2603   -2.3945   -1.1143 H   0  0  0  0  0  0  0  0  0  0  0  0
    3.1934   -2.6540    0.6471 H   0  0  0  0  0  0  0  0  0  0  0  0
    3.4415    3.8728   -0.4619 H   0  0  0  0  0  0  0  0  0  0  0  0
   -4.7104   -1.8825   -0.0048 H   0  0  0  0  0  0  0  0  0  0  0  0
   -6.0033   -0.4442   -1.2683 H   0  0  0  0  0  0  0  0  0  0  0  0
   -6.2313   -0.1556    0.5020 H   0  0  0  0  0  0  0  0  0  0  0  0
   -6.6198    1.1019   -0.6793 H   0  0  0  0  0  0  0  0  0  0  0  0
  1  2  1  0  0  0  0
  1  3  2  0  0  0  0
  1  4  1  0  0  0  0
  2  5  2  0  0  0  0
  2  6  1  0  0  0  0
  3  7  1  0  0  0  0
  3  8  1  0  0  0  0
  4  9  2  0  0  0  0
  4 10  1  0  0  0  0
  5 11  1  0  0  0  0
  5 12  1  0  0  0  0
  6 13  2  0  0  0  0
  6 14  1  0  0  0  0
  7 15  1  0  0  0  0
  7 11  2  0  0  0  0
  8 16  2  0  0  0  0
  8 26  1  0  0  0  0
  9 17  1  0  0  0  0
  9 13  1  0  0  0  0
 10 18  1  0  0  0  0
 11 27  1  0  0  0  0
 12 19  2  0  0  0  0
 12 20  1  0  0  0  0
 13 28  1  0  0  0  0
 14 21  1  0  0  0  0
 14 22  2  0  0  0  0
 15 23  2  0  0  0  0
 15 24  1  0  0  0  0
 16 23  1  0  0  0  0
 16 29  1  0  0  0  0
 17 18  1  0  0  0  0
 18 30  1  0  0  0  0
 18 31  1  0  0  0  0
 21 32  1  0  0  0  0
 23 33  1  0  0  0  0
 24 25  1  0  0  0  0
 25 34  1  0  0  0  0
 25 35  1  0  0  0  0
 25 36  1  0  0  0  0
M  CHG  2  12   1  20  -1
M  END
>  <Mol_ID>
4607

>  <Formula>
C17H11NO7

>  <MolWeight>
341.27174

>  <Cat>
S9193

>  <Name>
Aristolochic acid A

>  <Synonyms>
Aristolochic Acid I, Aristolochin, Aristolochine, TR 1736

>  <Target>
AP-1,NF-¦ÊB

>  <Form>
Free Base

>  <CAS>
313-67-7

>  <URL>
http://www.selleckchem.com/products/aristolochic-acid-a.html

$$$$
