Arranon (Nelarabine).cdx
 OpenBabel08302522003D

 36 38  0  0  0  0  0  0  0  0999 V2000
    6.5890   -1.8301   -2.6005 N   0  0  0  0  0  0  0  0  0  0  0  0
    5.4934   -2.5214   -2.9369 C   0  0  0  0  0  0  0  0  0  0  0  0
    4.3817   -2.6637   -2.2028 N   0  0  0  0  0  0  0  0  0  0  0  0
    4.4322   -1.9925   -1.0430 C   0  0  0  0  0  0  0  0  0  0  0  0
    5.4864   -1.2206   -0.5792 C   0  0  0  0  0  0  0  0  0  0  0  0
    6.6021   -1.1597   -1.4177 C   0  0  0  0  0  0  0  0  0  0  0  0
    3.4651   -1.9150   -0.0783 N   0  0  0  0  0  0  0  0  0  0  0  0
    3.9599   -1.0976    0.9116 C   0  0  0  0  0  0  0  0  0  0  0  0
    5.1745   -0.6714    0.6423 N   0  0  0  0  0  0  0  0  0  0  0  0
    5.5056   -3.1685   -4.1529 N   0  0  0  0  0  0  0  0  0  0  0  0
    7.7106   -0.4256   -1.0442 O   0  0  0  0  0  0  0  0  0  0  0  0
    8.7225   -0.3935   -2.0426 C   0  0  0  0  0  0  0  0  0  0  0  0
    2.1573   -2.5379   -0.0179 C   0  0  1  0  0  0  0  0  0  0  0  0
    1.6146   -3.3542   -1.1997 C   0  0  2  0  0  0  0  0  0  0  0  0
    2.2819   -4.7064   -0.9845 C   0  0  1  0  0  0  0  0  0  0  0  0
    2.1997   -4.8242    0.5363 C   0  0  2  0  0  0  0  0  0  0  0  0
    2.1962   -3.4781    1.0856 O   0  0  0  0  0  0  0  0  0  0  0  0
    3.3718   -5.5969    1.1361 C   0  0  0  0  0  0  0  0  0  0  0  0
    1.7425   -2.7938   -2.4925 O   0  0  0  0  0  0  0  0  0  0  0  0
    1.6332   -5.7832   -1.6492 O   0  0  0  0  0  0  0  0  0  0  0  0
    3.1987   -5.7007    2.5492 O   0  0  0  0  0  0  0  0  0  0  0  0
    3.3938   -0.8589    1.8046 H   0  0  0  0  0  0  0  0  0  0  0  0
    4.8840   -3.9638   -4.1639 H   0  0  0  0  0  0  0  0  0  0  0  0
    6.4540   -3.3165   -4.4715 H   0  0  0  0  0  0  0  0  0  0  0  0
    9.1314   -1.3936   -2.2233 H   0  0  0  0  0  0  0  0  0  0  0  0
    8.3516    0.0532   -2.9716 H   0  0  0  0  0  0  0  0  0  0  0  0
    9.5366    0.2373   -1.6725 H   0  0  0  0  0  0  0  0  0  0  0  0
    1.4545   -1.7336    0.2305 H   0  0  0  0  0  0  0  0  0  0  0  0
    0.5347   -3.4879   -1.0531 H   0  0  0  0  0  0  0  0  0  0  0  0
    3.3176   -4.7118   -1.3315 H   0  0  0  0  0  0  0  0  0  0  0  0
    1.2587   -5.2932    0.8482 H   0  0  0  0  0  0  0  0  0  0  0  0
    3.4379   -6.6073    0.7233 H   0  0  0  0  0  0  0  0  0  0  0  0
    4.3196   -5.0769    0.9618 H   0  0  0  0  0  0  0  0  0  0  0  0
    2.6972   -2.7606   -2.7169 H   0  0  0  0  0  0  0  0  0  0  0  0
    0.6697   -5.6501   -1.6158 H   0  0  0  0  0  0  0  0  0  0  0  0
    3.0293   -4.7953    2.8717 H   0  0  0  0  0  0  0  0  0  0  0  0
  1  2  2  0  0  0  0
  2  3  1  0  0  0  0
  2 10  1  0  0  0  0
  3  4  2  0  0  0  0
  4  5  1  0  0  0  0
  4  7  1  0  0  0  0
  5  6  2  0  0  0  0
  6  1  1  0  0  0  0
  6 11  1  0  0  0  0
  7  8  1  0  0  0  0
  8  9  2  0  0  0  0
  8 22  1  0  0  0  0
  9  5  1  0  0  0  0
 10 23  1  0  0  0  0
 10 24  1  0  0  0  0
 11 12  1  0  0  0  0
 12 25  1  0  0  0  0
 12 26  1  0  0  0  0
 12 27  1  0  0  0  0
 13 14  1  0  0  0  0
 13 28  1  1  0  0  0
 13  7  1  0  0  0  0
 14 15  1  0  0  0  0
 14 19  1  0  0  0  0
 14 29  1  1  0  0  0
 15 16  1  0  0  0  0
 15 20  1  0  0  0  0
 15 30  1  6  0  0  0
 16 17  1  0  0  0  0
 16 18  1  0  0  0  0
 16 31  1  1  0  0  0
 17 13  1  0  0  0  0
 18 21  1  0  0  0  0
 18 32  1  0  0  0  0
 18 33  1  0  0  0  0
 19 34  1  0  0  0  0
 20 35  1  0  0  0  0
 21 36  1  0  0  0  0
M  END
>  <Mol_ID>
123

>  <Formula>
C11H15N5O5

>  <MolWeight>
297.2673

>  <Cat>
S1213

>  <Name>
Nelarabine

>  <Synonyms>
506U78,Arranon

>  <Target>
DNA/RNA Synthesis

>  <Form>
free base

>  <CAS>
121032-29-9

>  <URL>
http://selleckchem.com/products/Arranon.html

$$$$
