ARS-853.cdx
 OpenBabel08302520413D

 59 62  0  0  0  0  0  0  0  0999 V2000
    3.9975    1.2983    5.1486 C   0  0  0  0  0  0  0  0  0  0  0  0
    5.1878    0.7599    4.6370 C   0  0  0  0  0  0  0  0  0  0  0  0
    5.6017    1.0373    3.3317 C   0  0  0  0  0  0  0  0  0  0  0  0
    4.8210    1.8645    2.5238 C   0  0  0  0  0  0  0  0  0  0  0  0
    3.6270    2.4353    2.9931 C   0  0  0  0  0  0  0  0  0  0  0  0
    3.2575    2.1554    4.3139 C   0  0  0  0  0  0  0  0  0  0  0  0
    5.1993    2.1248    1.2266 O   0  0  0  0  0  0  0  0  0  0  0  0
    3.4951    0.9778    6.5489 C   0  0  0  0  0  0  0  0  0  0  0  0
    2.9221    3.3305    2.1895 N   0  0  0  0  0  0  0  0  0  0  0  0
    1.5331    3.6782    2.4913 C   0  0  0  0  0  0  0  0  0  0  0  0
    0.8959    4.4686    1.3420 C   0  0  0  0  0  0  0  0  0  0  0  0
    1.3990    5.7362    1.0744 N   0  0  0  0  0  0  0  0  0  0  0  0
   -0.0291    3.9793    0.6859 O   0  0  0  0  0  0  0  0  0  0  0  0
    0.7304    6.5680    0.0764 C   0  0  0  0  0  0  0  0  0  0  0  0
    1.7194    7.4813   -0.6732 C   0  0  0  0  0  0  0  0  0  0  0  0
    2.6543    8.2573    0.1756 N   0  0  0  0  0  0  0  0  0  0  0  0
    3.3014    7.3392    1.1403 C   0  0  0  0  0  0  0  0  0  0  0  0
    2.3421    6.4427    1.9422 C   0  0  0  0  0  0  0  0  0  0  0  0
    1.9574    9.3459    0.8917 C   0  0  0  0  0  0  0  0  0  0  0  0
    1.5300   10.4773   -0.0738 C   0  0  0  0  0  0  0  0  0  0  0  0
    2.1281   11.3785    0.8983 N   0  0  0  0  0  0  0  0  0  0  0  0
    2.9940   10.3601    1.4522 C   0  0  0  0  0  0  0  0  0  0  0  0
    2.0039   12.7243    1.0113 C   0  0  0  0  0  0  0  0  0  0  0  0
    2.8238   13.3527    2.0832 C   0  0  0  0  0  0  0  0  0  0  0  0
    2.7553   14.6740    2.3039 C   0  0  0  0  0  0  0  0  0  0  0  0
    1.2592   13.3911    0.2974 O   0  0  0  0  0  0  0  0  0  0  0  0
    4.0035    1.8854    7.6418 C   0  0  0  0  0  0  0  0  0  0  0  0
    3.2243   -0.4726    6.9016 C   0  0  0  0  0  0  0  0  0  0  0  0
    2.0710    0.4562    6.6786 C   0  0  0  0  0  0  0  0  0  0  0  0
    5.7948    0.1094    5.2626 H   0  0  0  0  0  0  0  0  0  0  0  0
    6.5268    0.6021    2.9661 H   0  0  0  0  0  0  0  0  0  0  0  0
    2.3535    2.5933    4.7262 H   0  0  0  0  0  0  0  0  0  0  0  0
    5.9647    1.5609    1.0195 H   0  0  0  0  0  0  0  0  0  0  0  0
    3.1696    3.2480    1.2028 H   0  0  0  0  0  0  0  0  0  0  0  0
    0.9170    2.7882    2.6713 H   0  0  0  0  0  0  0  0  0  0  0  0
    1.4821    4.2984    3.3941 H   0  0  0  0  0  0  0  0  0  0  0  0
    0.1954    5.9434   -0.6474 H   0  0  0  0  0  0  0  0  0  0  0  0
   -0.0202    7.1665    0.6062 H   0  0  0  0  0  0  0  0  0  0  0  0
    2.3324    6.8440   -1.3243 H   0  0  0  0  0  0  0  0  0  0  0  0
    1.1660    8.1418   -1.3512 H   0  0  0  0  0  0  0  0  0  0  0  0
    3.9800    6.6904    0.5712 H   0  0  0  0  0  0  0  0  0  0  0  0
    3.9415    7.8933    1.8364 H   0  0  0  0  0  0  0  0  0  0  0  0
    1.7447    7.0348    2.6447 H   0  0  0  0  0  0  0  0  0  0  0  0
    2.9386    5.7566    2.5433 H   0  0  0  0  0  0  0  0  0  0  0  0
    1.1805    9.0537    1.6085 H   0  0  0  0  0  0  0  0  0  0  0  0
    2.0262   10.5338   -1.0475 H   0  0  0  0  0  0  0  0  0  0  0  0
    0.4498   10.6033   -0.1860 H   0  0  0  0  0  0  0  0  0  0  0  0
    3.0825   10.3670    2.5408 H   0  0  0  0  0  0  0  0  0  0  0  0
    3.9876   10.3712    0.9897 H   0  0  0  0  0  0  0  0  0  0  0  0
    3.4659   12.7260    2.6904 H   0  0  0  0  0  0  0  0  0  0  0  0
    3.3412   15.1448    3.0854 H   0  0  0  0  0  0  0  0  0  0  0  0
    2.1155   15.3123    1.6970 H   0  0  0  0  0  0  0  0  0  0  0  0
    5.0650    1.6985    7.8338 H   0  0  0  0  0  0  0  0  0  0  0  0
    3.8819    2.9381    7.3640 H   0  0  0  0  0  0  0  0  0  0  0  0
    3.4618    1.7302    8.5821 H   0  0  0  0  0  0  0  0  0  0  0  0
    3.4019   -1.2357    6.1516 H   0  0  0  0  0  0  0  0  0  0  0  0
    3.4185   -0.8054    7.9145 H   0  0  0  0  0  0  0  0  0  0  0  0
    1.4829    0.7616    7.5367 H   0  0  0  0  0  0  0  0  0  0  0  0
    1.4790    0.3135    5.7804 H   0  0  0  0  0  0  0  0  0  0  0  0
  1  2  2  0  0  0  0
  1  8  1  0  0  0  0
  2  3  1  0  0  0  0
  2 30  1  0  0  0  0
  3  4  2  0  0  0  0
  3 31  1  0  0  0  0
  4  5  1  0  0  0  0
  4  7  1  0  0  0  0
  5  6  2  0  0  0  0
  5  9  1  0  0  0  0
  6  1  1  0  0  0  0
  6 32  1  0  0  0  0
  7 33  1  0  0  0  0
  8 27  1  0  0  0  0
  8 28  1  0  0  0  0
  9 10  1  0  0  0  0
  9 34  1  0  0  0  0
 10 11  1  0  0  0  0
 10 35  1  0  0  0  0
 10 36  1  0  0  0  0
 11 12  1  0  0  0  0
 11 13  2  0  0  0  0
 12 14  1  0  0  0  0
 14 15  1  0  0  0  0
 14 37  1  0  0  0  0
 14 38  1  0  0  0  0
 15 16  1  0  0  0  0
 15 39  1  0  0  0  0
 15 40  1  0  0  0  0
 16 17  1  0  0  0  0
 16 19  1  0  0  0  0
 17 18  1  0  0  0  0
 17 41  1  0  0  0  0
 17 42  1  0  0  0  0
 18 12  1  0  0  0  0
 18 43  1  0  0  0  0
 18 44  1  0  0  0  0
 19 20  1  0  0  0  0
 19 45  1  0  0  0  0
 20 21  1  0  0  0  0
 20 46  1  0  0  0  0
 20 47  1  0  0  0  0
 21 22  1  0  0  0  0
 21 23  1  0  0  0  0
 22 19  1  0  0  0  0
 22 48  1  0  0  0  0
 22 49  1  0  0  0  0
 23 24  1  0  0  0  0
 23 26  2  0  0  0  0
 24 25  2  0  0  0  0
 24 50  1  0  0  0  0
 25 51  1  0  0  0  0
 25 52  1  0  0  0  0
 27 53  1  0  0  0  0
 27 54  1  0  0  0  0
 27 55  1  0  0  0  0
 28 29  1  0  0  0  0
 28 56  1  0  0  0  0
 28 57  1  0  0  0  0
 29  8  1  0  0  0  0
 29 58  1  0  0  0  0
 29 59  1  0  0  0  0
M  END
>  <Mol_ID>
3987

>  <Formula>
C22H29ClN4O3

>  <MolWeight>
432.94366

>  <Cat>
S8156

>  <Name>
ARS-853 (ARS853)

>  <Synonyms>
N/A

>  <Target>
Apoptosis related,Ras

>  <Form>
free base

>  <CAS>
1629268-00-3

>  <URL>
http://selleckchem.com/products/ars-853.html

$$$$
