Artemisinin.cdx
 OpenBabel08302520393D

 42 45  0  0  0  0  0  0  0  0999 V2000
    2.4374    1.7239   -0.8361 C   0  0  2  0  0  0  0  0  0  0  0  0
    1.8596    2.8277   -1.5385 O   0  0  0  0  0  0  0  0  0  0  0  0
    0.4317    2.8617   -1.3786 C   0  0  2  0  0  0  0  0  0  0  0  0
   -0.0435    2.2600   -0.0311 C   0  0  1  0  0  0  0  0  0  0  0  0
    0.5011    3.0255    1.2157 C   0  0  1  0  0  0  0  0  0  0  0  0
    2.0141    3.3118    1.1375 C   0  0  0  0  0  0  0  0  0  0  0  0
    2.8618    2.1734    0.5778 C   0  0  0  0  0  0  0  0  0  0  0  0
   -1.5898    2.1603   -0.0124 C   0  0  1  0  0  0  0  0  0  0  0  0
   -2.2567    3.5189    0.2466 C   0  0  0  0  0  0  0  0  0  0  0  0
   -1.7627    4.1483    1.5368 C   0  0  0  0  0  0  0  0  0  0  0  0
   -0.2492    4.3452    1.5279 C   0  0  1  0  0  0  0  0  0  0  0  0
    0.1945    4.9533    2.8693 C   0  0  0  0  0  0  0  0  0  0  0  0
   -0.1711    2.2623   -2.5354 O   0  0  0  0  0  0  0  0  0  0  0  0
   -1.5112    2.1086   -2.5536 C   0  0  0  0  0  0  0  0  0  0  0  0
   -2.1073    1.4829   -1.3032 C   0  0  2  0  0  0  0  0  0  0  0  0
   -3.6368    1.4549   -1.3884 C   0  0  0  0  0  0  0  0  0  0  0  0
   -2.1614    2.3297   -3.5733 O   0  0  0  0  0  0  0  0  0  0  0  0
    3.6838    1.2561   -1.6141 C   0  0  0  0  0  0  0  0  0  0  0  0
    1.5177    0.6248   -0.8098 O   0  0  0  0  0  0  0  0  0  0  0  0
    0.4461    0.9039    0.1477 O   0  0  0  0  0  0  0  0  0  0  0  0
    0.1668    3.9218   -1.4219 H   0  0  0  0  0  0  0  0  0  0  0  0
    0.3619    2.3540    2.0773 H   0  0  0  0  0  0  0  0  0  0  0  0
    2.3986    3.5592    2.1338 H   0  0  0  0  0  0  0  0  0  0  0  0
    2.1875    4.2095    0.5279 H   0  0  0  0  0  0  0  0  0  0  0  0
    2.8613    1.3225    1.2692 H   0  0  0  0  0  0  0  0  0  0  0  0
    3.8886    2.5622    0.5543 H   0  0  0  0  0  0  0  0  0  0  0  0
   -1.8755    1.4983    0.8182 H   0  0  0  0  0  0  0  0  0  0  0  0
   -2.0854    4.2025   -0.5933 H   0  0  0  0  0  0  0  0  0  0  0  0
   -3.3412    3.4019    0.3446 H   0  0  0  0  0  0  0  0  0  0  0  0
   -2.2591    5.1181    1.6666 H   0  0  0  0  0  0  0  0  0  0  0  0
   -2.0592    3.5243    2.3883 H   0  0  0  0  0  0  0  0  0  0  0  0
   -0.0208    5.0760    0.7395 H   0  0  0  0  0  0  0  0  0  0  0  0
    0.6353    4.2033    3.5349 H   0  0  0  0  0  0  0  0  0  0  0  0
    0.9461    5.7312    2.6994 H   0  0  0  0  0  0  0  0  0  0  0  0
   -0.6388    5.4152    3.4082 H   0  0  0  0  0  0  0  0  0  0  0  0
   -1.7682    0.4395   -1.3095 H   0  0  0  0  0  0  0  0  0  0  0  0
   -3.9684    0.8976   -2.2706 H   0  0  0  0  0  0  0  0  0  0  0  0
   -4.0642    2.4577   -1.4814 H   0  0  0  0  0  0  0  0  0  0  0  0
   -4.0692    0.9713   -0.5066 H   0  0  0  0  0  0  0  0  0  0  0  0
    3.5268    0.2762   -2.0751 H   0  0  0  0  0  0  0  0  0  0  0  0
    4.5551    1.1509   -0.9620 H   0  0  0  0  0  0  0  0  0  0  0  0
    3.9532    1.9667   -2.4020 H   0  0  0  0  0  0  0  0  0  0  0  0
  1  2  1  0  0  0  0
  1 18  1  6  0  0  0
  1 19  1  0  0  0  0
  3  2  1  0  0  0  0
  3  4  1  0  0  0  0
  3 13  1  0  0  0  0
  3 21  1  1  0  0  0
  4  5  1  0  0  0  0
  4  8  1  0  0  0  0
  4 20  1  1  0  0  0
  5  6  1  0  0  0  0
  5 22  1  1  0  0  0
  6  7  1  0  0  0  0
  6 23  1  0  0  0  0
  6 24  1  0  0  0  0
  7  1  1  0  0  0  0
  7 25  1  0  0  0  0
  7 26  1  0  0  0  0
  8  9  1  0  0  0  0
  8 27  1  1  0  0  0
  9 10  1  0  0  0  0
  9 28  1  0  0  0  0
  9 29  1  0  0  0  0
 10 11  1  0  0  0  0
 10 30  1  0  0  0  0
 10 31  1  0  0  0  0
 11  5  1  0  0  0  0
 11 12  1  0  0  0  0
 11 32  1  6  0  0  0
 12 33  1  0  0  0  0
 12 34  1  0  0  0  0
 12 35  1  0  0  0  0
 13 14  1  0  0  0  0
 14 15  1  0  0  0  0
 14 17  2  0  0  0  0
 15  8  1  0  0  0  0
 15 16  1  0  0  0  0
 15 36  1  1  0  0  0
 16 37  1  0  0  0  0
 16 38  1  0  0  0  0
 16 39  1  0  0  0  0
 18 40  1  0  0  0  0
 18 41  1  0  0  0  0
 18 42  1  0  0  0  0
 19 20  1  0  0  0  0
M  END
>  <Mol_ID>
370

>  <Formula>
C15H22O5

>  <MolWeight>
282.33218

>  <Cat>
S1282

>  <Name>
Artemisinin

>  <Synonyms>
Qinghaosu,Artemisinine,Coartem,NSC 369397

>  <Target>
ADC Cytotoxin,Anti-infection

>  <Form>
free base

>  <CAS>
63968-64-9

>  <URL>
http://selleckchem.com/products/Artemisinin.html

$$$$
