Arteannuin
 OpenBabel08302521463D

 38 41  0  0  1  0  0  0  0  0999 V2000
    1.8589    0.8821   -2.5698 C   0  0  0  0  0  0  0  0  0  0  0  0
   -0.7087   -4.0376   -0.4960 C   0  0  0  0  0  0  0  0  0  0  0  0
   -1.8331    2.1557    1.0106 C   0  0  0  0  0  0  0  0  0  0  0  0
    1.7174   -4.0688    1.3490 O   0  0  0  0  0  0  0  0  0  0  0  0
    0.3837   -0.9711    0.6071 C   0  0  2  0  0  0  0  0  0  0  0  0
    0.9785   -0.8016   -0.7940 C   0  0  1  0  0  0  0  0  0  0  0  0
   -0.8796   -1.8102    0.7699 C   0  0  2  0  0  0  0  0  0  0  0  0
    0.0545    0.4309    1.1467 C   0  0  2  0  0  0  0  0  0  0  0  0
    1.3049   -1.7756    1.3707 O   0  0  0  0  0  0  0  0  0  0  0  0
    1.7688    0.4601   -1.1387 C   0  0  1  0  0  0  0  0  0  0  0  0
    2.4193   -0.7760   -0.8478 O   0  0  0  0  0  0  0  0  0  0  0  0
   -0.2920   -3.1068    0.3631 C   0  0  0  0  0  0  0  0  0  0  0  0
   -2.1822   -1.2177    0.2509 C   0  0  0  0  0  0  0  0  0  0  0  0
   -1.0447    1.1013    0.2367 C   0  0  1  0  0  0  0  0  0  0  0  0
    1.3433    1.2577    1.2478 C   0  0  0  0  0  0  0  0  0  0  0  0
    1.0448   -3.0937    1.0507 C   0  0  0  0  0  0  0  0  0  0  0  0
    1.9941    1.5363   -0.1089 C   0  0  0  0  0  0  0  0  0  0  0  0
   -1.9817    0.0931   -0.4863 C   0  0  0  0  0  0  0  0  0  0  0  0
    0.9746    1.4703   -2.8384 H   0  0  0  0  0  0  0  0  0  0  0  0
    2.7451    1.5034   -2.7362 H   0  0  0  0  0  0  0  0  0  0  0  0
    1.9123    0.0246   -3.2492 H   0  0  0  0  0  0  0  0  0  0  0  0
   -0.0918   -4.9036   -0.7222 H   0  0  0  0  0  0  0  0  0  0  0  0
   -1.6504   -3.9446   -1.0283 H   0  0  0  0  0  0  0  0  0  0  0  0
   -1.2067    3.0371    1.1858 H   0  0  0  0  0  0  0  0  0  0  0  0
   -2.7081    2.4915    0.4424 H   0  0  0  0  0  0  0  0  0  0  0  0
   -2.1771    1.7784    1.9764 H   0  0  0  0  0  0  0  0  0  0  0  0
    0.4696   -1.3389   -1.5826 H   0  0  0  0  0  0  0  0  0  0  0  0
   -1.0727   -1.9406    1.8507 H   0  0  0  0  0  0  0  0  0  0  0  0
   -0.3322    0.3269    2.1708 H   0  0  0  0  0  0  0  0  0  0  0  0
   -2.8182   -0.9981    1.1198 H   0  0  0  0  0  0  0  0  0  0  0  0
   -2.7506   -1.9301   -0.3540 H   0  0  0  0  0  0  0  0  0  0  0  0
   -0.5667    1.6532   -0.5779 H   0  0  0  0  0  0  0  0  0  0  0  0
    2.0616    0.7200    1.8799 H   0  0  0  0  0  0  0  0  0  0  0  0
    1.1476    2.2078    1.7585 H   0  0  0  0  0  0  0  0  0  0  0  0
    1.5869    2.4814   -0.4926 H   0  0  0  0  0  0  0  0  0  0  0  0
    3.0690    1.7080    0.0285 H   0  0  0  0  0  0  0  0  0  0  0  0
   -2.9556    0.5469   -0.7012 H   0  0  0  0  0  0  0  0  0  0  0  0
   -1.5554   -0.1404   -1.4707 H   0  0  0  0  0  0  0  0  0  0  0  0
  1 19  1  0  0  0  0
  1 20  1  0  0  0  0
  1 21  1  0  0  0  0
  2 12  2  0  0  0  0
  2 22  1  0  0  0  0
  2 23  1  0  0  0  0
  3 24  1  0  0  0  0
  3 25  1  0  0  0  0
  3 26  1  0  0  0  0
  4 16  2  0  0  0  0
  5  6  1  0  0  0  0
  5  7  1  0  0  0  0
  5  8  1  0  0  0  0
  5  9  1  1  0  0  0
  6 10  1  0  0  0  0
  6 11  1  0  0  0  0
  6 27  1  6  0  0  0
  7 12  1  0  0  0  0
  7 13  1  0  0  0  0
  7 28  1  1  0  0  0
  8 14  1  0  0  0  0
  8 15  1  0  0  0  0
  8 29  1  1  0  0  0
  9 16  1  0  0  0  0
 10  1  1  6  0  0  0
 10 11  1  0  0  0  0
 10 17  1  0  0  0  0
 12 16  1  0  0  0  0
 13 18  1  0  0  0  0
 13 30  1  0  0  0  0
 13 31  1  0  0  0  0
 14  3  1  0  0  0  0
 14 18  1  0  0  0  0
 14 32  1  6  0  0  0
 15 17  1  0  0  0  0
 15 33  1  0  0  0  0
 15 34  1  0  0  0  0
 17 35  1  0  0  0  0
 17 36  1  0  0  0  0
 18 37  1  0  0  0  0
 18 38  1  0  0  0  0
M  END
>  <Mol_ID>
9691

>  <Formula>
C15H20O3

>  <MolWeight>
248.3175

>  <Cat>
E0697

>  <Name>
Arteannuin

>  <Synonyms>
Arteannuin B

>  <Target>
Bacterial, Fungal, SARS-CoV

>  <Form>
free base

>  <CAS>
50906-56-4

>  <URL>
https://www.selleckchem.com/products/arteannuin-b.html

$$$$
