Artemitin
 OpenBabel08302521353D

 48 50  0  0  0  0  0  0  0  0999 V2000
   -1.1083    2.3632   -0.0410 O   0  0  0  0  0  0  0  0  0  0  0  0
    1.4019    2.2357    0.2859 O   0  0  0  0  0  0  0  0  0  0  0  0
   -3.7171    1.0916    0.0582 O   0  0  0  0  0  0  0  0  0  0  0  0
   -3.7171    2.5107    0.0082 C   0  0  0  0  0  0  0  0  0  0  0  0
    3.8034    0.4958    0.0010 O   0  0  0  0  0  0  0  0  0  0  0  0
    4.2061    1.8482    0.0381 C   0  0  0  0  0  0  0  0  0  0  0  0
    3.2944   -2.3088   -0.0533 O   0  0  0  0  0  0  0  0  0  0  0  0
    4.6693   -1.9477   -0.0902 C   0  0  0  0  0  0  0  0  0  0  0  0
   -6.1417   -3.1835    2.3949 O   0  0  0  0  0  0  0  0  0  0  0  0
   -5.5897   -2.7481    3.6310 C   0  0  0  0  0  0  0  0  0  0  0  0
   -7.1530   -4.0490   -0.1992 O   0  0  0  0  0  0  0  0  0  0  0  0
   -7.8905   -4.5097    0.9237 C   0  0  0  0  0  0  0  0  0  0  0  0
    0.0558    0.3117    0.0797 C   0  0  0  0  0  0  0  0  0  0  0  0
   -0.0931   -1.0703    0.0552 C   0  0  0  0  0  0  0  0  0  0  0  0
   -1.1754    1.1323    0.0446 C   0  0  0  0  0  0  0  0  0  0  0  0
    1.3513    0.8819    0.1009 C   0  0  0  0  0  0  0  0  0  0  0  0
   -1.3118   -1.6948    0.0545 O   0  0  0  0  0  0  0  0  0  0  0  0
    1.0370   -1.8843    0.0217 C   0  0  0  0  0  0  0  0  0  0  0  0
   -2.4914    0.4290    0.0576 C   0  0  0  0  0  0  0  0  0  0  0  0
    2.5057    0.0751    0.0243 C   0  0  0  0  0  0  0  0  0  0  0  0
   -2.4573   -0.9160    0.0479 C   0  0  0  0  0  0  0  0  0  0  0  0
    2.3309   -1.3305   -0.0080 C   0  0  0  0  0  0  0  0  0  0  0  0
   -3.6937   -1.7142    0.0219 C   0  0  0  0  0  0  0  0  0  0  0  0
   -4.3284   -2.0609    1.2214 C   0  0  0  0  0  0  0  0  0  0  0  0
   -4.2497   -2.1297   -1.1867 C   0  0  0  0  0  0  0  0  0  0  0  0
   -5.5034   -2.8339    1.2375 C   0  0  0  0  0  0  0  0  0  0  0  0
   -5.4160   -2.9018   -1.1872 C   0  0  0  0  0  0  0  0  0  0  0  0
   -6.0454   -3.2702    0.0119 C   0  0  0  0  0  0  0  0  0  0  0  0
    2.1318    2.6472   -0.1866 H   0  0  0  0  0  0  0  0  0  0  0  0
   -3.2610    2.9372    0.9113 H   0  0  0  0  0  0  0  0  0  0  0  0
   -3.2316    2.8781   -0.9043 H   0  0  0  0  0  0  0  0  0  0  0  0
   -4.7536    2.8522   -0.0242 H   0  0  0  0  0  0  0  0  0  0  0  0
    3.8847    2.3763   -0.8653 H   0  0  0  0  0  0  0  0  0  0  0  0
    3.8722    2.3380    0.9567 H   0  0  0  0  0  0  0  0  0  0  0  0
    5.2997    1.8710    0.0358 H   0  0  0  0  0  0  0  0  0  0  0  0
    4.9090   -1.3977   -1.0063 H   0  0  0  0  0  0  0  0  0  0  0  0
    4.9646   -1.4009    0.8115 H   0  0  0  0  0  0  0  0  0  0  0  0
    5.2593   -2.8694   -0.1067 H   0  0  0  0  0  0  0  0  0  0  0  0
   -4.5963   -3.1776    3.7910 H   0  0  0  0  0  0  0  0  0  0  0  0
   -5.5696   -1.6561    3.6884 H   0  0  0  0  0  0  0  0  0  0  0  0
   -6.2417   -3.1108    4.4318 H   0  0  0  0  0  0  0  0  0  0  0  0
   -7.2654   -5.0870    1.6123 H   0  0  0  0  0  0  0  0  0  0  0  0
   -8.3963   -3.6768    1.4230 H   0  0  0  0  0  0  0  0  0  0  0  0
   -8.6647   -5.1929    0.5612 H   0  0  0  0  0  0  0  0  0  0  0  0
    0.9216   -2.9664    0.0103 H   0  0  0  0  0  0  0  0  0  0  0  0
   -3.8808   -1.7081    2.1463 H   0  0  0  0  0  0  0  0  0  0  0  0
   -3.7874   -1.8604   -2.1311 H   0  0  0  0  0  0  0  0  0  0  0  0
   -5.8371   -3.2268   -2.1335 H   0  0  0  0  0  0  0  0  0  0  0  0
  1 15  2  0  0  0  0
  2 16  1  0  0  0  0
  2 29  1  0  0  0  0
  3  4  1  0  0  0  0
  3 19  1  0  0  0  0
  4 30  1  0  0  0  0
  4 31  1  0  0  0  0
  4 32  1  0  0  0  0
  5  6  1  0  0  0  0
  5 20  1  0  0  0  0
  6 33  1  0  0  0  0
  6 34  1  0  0  0  0
  6 35  1  0  0  0  0
  7  8  1  0  0  0  0
  7 22  1  0  0  0  0
  8 36  1  0  0  0  0
  8 37  1  0  0  0  0
  8 38  1  0  0  0  0
  9 10  1  0  0  0  0
  9 26  1  0  0  0  0
 10 39  1  0  0  0  0
 10 40  1  0  0  0  0
 10 41  1  0  0  0  0
 11 12  1  0  0  0  0
 11 28  1  0  0  0  0
 12 42  1  0  0  0  0
 12 43  1  0  0  0  0
 12 44  1  0  0  0  0
 13 14  2  0  0  0  0
 13 15  1  0  0  0  0
 13 16  1  0  0  0  0
 14 17  1  0  0  0  0
 14 18  1  0  0  0  0
 15 19  1  0  0  0  0
 16 20  2  0  0  0  0
 17 21  1  0  0  0  0
 18 22  2  0  0  0  0
 18 45  1  0  0  0  0
 19 21  2  0  0  0  0
 20 22  1  0  0  0  0
 21 23  1  0  0  0  0
 23 24  2  0  0  0  0
 23 25  1  0  0  0  0
 24 26  1  0  0  0  0
 24 46  1  0  0  0  0
 25 27  2  0  0  0  0
 25 47  1  0  0  0  0
 26 28  2  0  0  0  0
 27 28  1  0  0  0  0
 27 48  1  0  0  0  0
M  END
>  <Mol_ID>
6800

>  <Formula>
C20H20O8

>  <MolWeight>
388.368

>  <Cat>
E0250

>  <Name>
Artemitin

>  <Synonyms>
N/A

>  <Target>
Others

>  <Form>
Free base

>  <CAS>
479-90-3

>  <URL>
http://www.selleckchem.com/products/artemitin.html

$$$$
