ARTHROTEC (diclofenac sodium).cdx
 OpenBabel08302519503D

 29 30  0  0  0  0  0  0  0  0999 V2000
   -2.9555   -0.1112   -2.9973 C   0  0  0  0  0  0  0  0  0  0  0  0
   -2.7683   -0.6651   -1.7266 C   0  0  0  0  0  0  0  0  0  0  0  0
   -1.7852   -1.6348   -1.5154 C   0  0  0  0  0  0  0  0  0  0  0  0
   -0.9151   -1.9478   -2.5708 C   0  0  0  0  0  0  0  0  0  0  0  0
   -1.1043   -1.4060   -3.8418 C   0  0  0  0  0  0  0  0  0  0  0  0
   -2.1365   -0.4977   -4.0588 C   0  0  0  0  0  0  0  0  0  0  0  0
   -1.6258   -2.2064   -0.2199 N   0  0  0  0  0  0  0  0  0  0  0  0
    0.1774   -0.8484    1.3185 O   0  5  0  0  0  0  0  0  0  0  0  0
    0.7938   -1.8377    1.8208 C   0  0  0  0  0  0  0  0  0  0  0  0
   -0.1109   -2.9809    2.2632 C   0  0  0  0  0  0  0  0  0  0  0  0
   -0.4562   -3.9320    1.1373 C   0  0  0  0  0  0  0  0  0  0  0  0
   -1.1928   -3.5503   -0.0022 C   0  0  0  0  0  0  0  0  0  0  0  0
    2.0290   -1.9926    2.0313 O   0  0  0  0  0  0  0  0  0  0  0  0
   -0.0319   -5.2710    1.2576 C   0  0  0  0  0  0  0  0  0  0  0  0
   -0.3656   -6.2307    0.3008 C   0  0  0  0  0  0  0  0  0  0  0  0
   -1.1669   -5.8791   -0.7730 C   0  0  0  0  0  0  0  0  0  0  0  0
   -1.5962   -4.5580   -0.9050 C   0  0  0  0  0  0  0  0  0  0  0  0
   -3.7417    0.6203   -3.1555 H   0  0  0  0  0  0  0  0  0  0  0  0
   -3.4052   -0.3616   -0.9005 H   0  0  0  0  0  0  0  0  0  0  0  0
   -0.0866   -2.6312   -2.4000 H   0  0  0  0  0  0  0  0  0  0  0  0
   -0.4401   -1.6943   -4.6506 H   0  0  0  0  0  0  0  0  0  0  0  0
   -2.2891   -0.0785   -5.0485 H   0  0  0  0  0  0  0  0  0  0  0  0
   -1.0347   -1.5508    0.3347 H   0  0  0  0  0  0  0  0  0  0  0  0
   -1.0389   -2.5819    2.6909 H   0  0  0  0  0  0  0  0  0  0  0  0
    0.3839   -3.5168    3.0838 H   0  0  0  0  0  0  0  0  0  0  0  0
    0.5755   -5.5669    2.1098 H   0  0  0  0  0  0  0  0  0  0  0  0
   -0.0091   -7.2490    0.4068 H   0  0  0  0  0  0  0  0  0  0  0  0
   -1.4541   -6.6139   -1.5168 H   0  0  0  0  0  0  0  0  0  0  0  0
   -2.2374   -4.3019   -1.7431 H   0  0  0  0  0  0  0  0  0  0  0  0
  1  2  2  0  0  0  0
  1 18  1  0  0  0  0
  2  3  1  0  0  0  0
  2 19  1  0  0  0  0
  3  4  2  0  0  0  0
  3  7  1  0  0  0  0
  4  5  1  0  0  0  0
  4 20  1  0  0  0  0
  5  6  2  0  0  0  0
  5 21  1  0  0  0  0
  6  1  1  0  0  0  0
  6 22  1  0  0  0  0
  7 23  1  0  0  0  0
  8  9  1  0  0  0  0
  9 10  1  0  0  0  0
  9 13  2  0  0  0  0
 10 11  1  0  0  0  0
 10 24  1  0  0  0  0
 10 25  1  0  0  0  0
 11 12  2  0  0  0  0
 11 14  1  0  0  0  0
 12  7  1  0  0  0  0
 14 15  2  0  0  0  0
 14 26  1  0  0  0  0
 15 16  1  0  0  0  0
 15 27  1  0  0  0  0
 16 17  2  0  0  0  0
 16 28  1  0  0  0  0
 17 12  1  0  0  0  0
 17 29  1  0  0  0  0
M  CHG  1   8  -1
M  END
>  <Mol_ID>
180

>  <Formula>
C14H10Cl2NNaO2

>  <MolWeight>
318.13047

>  <Cat>
S1903

>  <Name>
Diclofenac Sodium

>  <Synonyms>
GP 45840

>  <Target>
COX

>  <Form>
Sodium Salt

>  <CAS>
15307-79-6

>  <URL>
http://selleckchem.com/products/Diclofenac-sodium.html

$$$$
