ASP-9521
 OpenBabel08302521233D

 50 52  0  0  0  0  0  0  0  0999 V2000
    1.0424   -0.0219   -0.1215 C   0  0  0  0  0  0  0  0  0  0  0  0
    2.5383    0.4038   -0.0991 C   0  0  0  0  0  0  0  0  0  0  0  0
    2.9494    1.0830    1.2100 C   0  0  0  0  0  0  0  0  0  0  0  0
    3.3644   -0.7483   -0.2676 O   0  0  0  0  0  0  0  0  0  0  0  0
    2.8469    1.3591   -1.2627 C   0  0  0  0  0  0  0  0  0  0  0  0
   -0.9274   -3.2539    0.1072 N   0  0  0  0  0  0  0  0  0  0  0  0
    0.5231   -3.2784    0.2751 C   0  0  0  0  0  0  0  0  0  0  0  0
    1.1011   -2.2555    1.2466 C   0  0  0  0  0  0  0  0  0  0  0  0
    0.5257   -0.8446    1.0918 C   0  0  0  0  0  0  0  0  0  0  0  0
   -1.0091   -0.9581    1.1046 C   0  0  0  0  0  0  0  0  0  0  0  0
   -1.5727   -1.9452    0.0864 C   0  0  0  0  0  0  0  0  0  0  0  0
   -1.6862   -4.3361   -0.4075 C   0  0  0  0  0  0  0  0  0  0  0  0
   -2.9137   -4.2854   -0.4401 O   0  0  0  0  0  0  0  0  0  0  0  0
    0.2024   -5.4655   -1.6386 N   0  0  0  0  0  0  0  0  0  0  0  0
   -0.9834   -5.4991   -0.9431 C   0  0  0  0  0  0  0  0  0  0  0  0
   -1.4061   -6.8228   -1.0112 C   0  0  0  0  0  0  0  0  0  0  0  0
   -0.3992   -7.5974   -1.6656 C   0  0  0  0  0  0  0  0  0  0  0  0
   -0.2450   -8.9546   -2.0165 C   0  0  0  0  0  0  0  0  0  0  0  0
    0.9202   -9.3759   -2.6825 C   0  0  0  0  0  0  0  0  0  0  0  0
    1.9298   -8.4583   -2.9751 C   0  0  0  0  0  0  0  0  0  0  0  0
    1.7974   -7.1089   -2.6410 C   0  0  0  0  0  0  0  0  0  0  0  0
    0.6188   -6.7168   -2.0051 C   0  0  0  0  0  0  0  0  0  0  0  0
    0.9543  -10.7102   -2.9962 O   0  0  0  0  0  0  0  0  0  0  0  0
    2.0891  -11.1666   -3.7251 C   0  0  0  0  0  0  0  0  0  0  0  0
    0.8459   -0.5803   -1.0453 H   0  0  0  0  0  0  0  0  0  0  0  0
    0.4410    0.8960   -0.1777 H   0  0  0  0  0  0  0  0  0  0  0  0
    2.9414    0.3797    2.0488 H   0  0  0  0  0  0  0  0  0  0  0  0
    3.9797    1.4552    1.1491 H   0  0  0  0  0  0  0  0  0  0  0  0
    2.2971    1.9295    1.4464 H   0  0  0  0  0  0  0  0  0  0  0  0
    3.1035   -1.1848   -1.0954 H   0  0  0  0  0  0  0  0  0  0  0  0
    2.6680    0.8784   -2.2303 H   0  0  0  0  0  0  0  0  0  0  0  0
    2.2467    2.2734   -1.2082 H   0  0  0  0  0  0  0  0  0  0  0  0
    3.9058    1.6485   -1.2577 H   0  0  0  0  0  0  0  0  0  0  0  0
    0.9625   -3.0956   -0.7079 H   0  0  0  0  0  0  0  0  0  0  0  0
    0.8182   -4.2768    0.6189 H   0  0  0  0  0  0  0  0  0  0  0  0
    2.1906   -2.2602    1.1542 H   0  0  0  0  0  0  0  0  0  0  0  0
    0.8952   -2.5971    2.2688 H   0  0  0  0  0  0  0  0  0  0  0  0
    0.7950   -0.2829    1.9937 H   0  0  0  0  0  0  0  0  0  0  0  0
   -1.3155   -1.2876    2.1064 H   0  0  0  0  0  0  0  0  0  0  0  0
   -1.4650    0.0270    0.9514 H   0  0  0  0  0  0  0  0  0  0  0  0
   -2.6506   -2.0500    0.2584 H   0  0  0  0  0  0  0  0  0  0  0  0
   -1.4539   -1.5546   -0.9306 H   0  0  0  0  0  0  0  0  0  0  0  0
    0.7058   -4.6299   -1.8820 H   0  0  0  0  0  0  0  0  0  0  0  0
   -2.3477   -7.1927   -0.6220 H   0  0  0  0  0  0  0  0  0  0  0  0
   -1.0266   -9.6733   -1.7875 H   0  0  0  0  0  0  0  0  0  0  0  0
    2.8450   -8.7557   -3.4765 H   0  0  0  0  0  0  0  0  0  0  0  0
    2.5802   -6.3963   -2.8770 H   0  0  0  0  0  0  0  0  0  0  0  0
    2.1671  -10.6633   -4.6953 H   0  0  0  0  0  0  0  0  0  0  0  0
    3.0080  -11.0428   -3.1419 H   0  0  0  0  0  0  0  0  0  0  0  0
    1.9595  -12.2359   -3.9161 H   0  0  0  0  0  0  0  0  0  0  0  0
  1  2  1  0  0  0  0
  1  9  1  0  0  0  0
  1 25  1  0  0  0  0
  1 26  1  0  0  0  0
  2  3  1  0  0  0  0
  2  4  1  0  0  0  0
  2  5  1  0  0  0  0
  3 27  1  0  0  0  0
  3 28  1  0  0  0  0
  3 29  1  0  0  0  0
  4 30  1  0  0  0  0
  5 31  1  0  0  0  0
  5 32  1  0  0  0  0
  5 33  1  0  0  0  0
  6  7  1  0  0  0  0
  6 11  1  0  0  0  0
  6 12  1  0  0  0  0
  7  8  1  0  0  0  0
  7 34  1  0  0  0  0
  7 35  1  0  0  0  0
  8  9  1  0  0  0  0
  8 36  1  0  0  0  0
  8 37  1  0  0  0  0
  9 10  1  0  0  0  0
  9 38  1  0  0  0  0
 10 11  1  0  0  0  0
 10 39  1  0  0  0  0
 10 40  1  0  0  0  0
 11 41  1  0  0  0  0
 11 42  1  0  0  0  0
 12 13  2  0  0  0  0
 12 15  1  0  0  0  0
 14 15  1  0  0  0  0
 14 22  1  0  0  0  0
 14 43  1  0  0  0  0
 15 16  2  0  0  0  0
 16 17  1  0  0  0  0
 16 44  1  0  0  0  0
 17 18  1  0  0  0  0
 17 22  2  0  0  0  0
 18 19  2  0  0  0  0
 18 45  1  0  0  0  0
 19 20  1  0  0  0  0
 19 23  1  0  0  0  0
 20 21  2  0  0  0  0
 20 46  1  0  0  0  0
 21 22  1  0  0  0  0
 21 47  1  0  0  0  0
 23 24  1  0  0  0  0
 24 48  1  0  0  0  0
 24 49  1  0  0  0  0
 24 50  1  0  0  0  0
M  END
>  <Mol_ID>
4793

>  <Formula>
C19H26N2O3

>  <MolWeight>
330.42134

>  <Cat>
S6749

>  <Name>
ASP-9521

>  <Synonyms>
N/A

>  <Target>
Dehydrogenase

>  <Form>
Free Base

>  <CAS>
1126084-37-4

>  <URL>
http://www.selleck.cn/products/asp-9521.html

$$$$
