Aspartame.cdx
 OpenBabel08302521443D

 39 39  0  0  0  0  0  0  0  0999 V2000
   -1.8363    3.8047    5.3447 C   0  0  0  0  0  0  0  0  0  0  0  0
   -2.2578    3.6094    3.9064 C   0  0  0  0  0  0  0  0  0  0  0  0
   -2.0987    2.7751    6.1787 O   0  0  0  0  0  0  0  0  0  0  0  0
   -1.2271    4.7980    5.7206 O   0  0  0  0  0  0  0  0  0  0  0  0
   -3.3844    2.5998    3.7057 C   0  0  1  0  0  0  0  0  0  0  0  0
   -3.9304    2.5814    2.2642 C   0  0  0  0  0  0  0  0  0  0  0  0
   -2.9956    2.4049    1.2660 N   0  0  0  0  0  0  0  0  0  0  0  0
   -3.3639    2.2640   -0.1583 C   0  0  2  0  0  0  0  0  0  0  0  0
   -2.9653    0.8449   -0.5647 C   0  0  0  0  0  0  0  0  0  0  0  0
   -3.9836    0.2085   -1.2024 O   0  0  0  0  0  0  0  0  0  0  0  0
   -5.1323    2.6710    2.0308 O   0  0  0  0  0  0  0  0  0  0  0  0
   -2.5981    3.3110   -0.9759 C   0  0  0  0  0  0  0  0  0  0  0  0
   -2.8036    3.2926   -2.4709 C   0  0  0  0  0  0  0  0  0  0  0  0
   -1.8714    0.3547   -0.3008 O   0  0  0  0  0  0  0  0  0  0  0  0
   -3.7460   -1.1524   -1.5758 C   0  0  0  0  0  0  0  0  0  0  0  0
   -3.8125    4.0599   -3.0679 C   0  0  0  0  0  0  0  0  0  0  0  0
   -3.9283    4.1182   -4.4594 C   0  0  0  0  0  0  0  0  0  0  0  0
   -3.0486    3.3997   -5.2669 C   0  0  0  0  0  0  0  0  0  0  0  0
   -2.0591    2.6120   -4.6839 C   0  0  0  0  0  0  0  0  0  0  0  0
   -1.9373    2.5571   -3.2941 C   0  0  0  0  0  0  0  0  0  0  0  0
   -2.9423    1.2382    4.1101 N   0  0  0  0  0  0  0  0  0  0  0  0
   -2.6035    4.5877    3.5454 H   0  0  0  0  0  0  0  0  0  0  0  0
   -1.3655    3.3384    3.3332 H   0  0  0  0  0  0  0  0  0  0  0  0
   -2.4717    1.9889    5.7094 H   0  0  0  0  0  0  0  0  0  0  0  0
   -4.2242    2.8746    4.3582 H   0  0  0  0  0  0  0  0  0  0  0  0
   -2.0522    2.1225    1.5112 H   0  0  0  0  0  0  0  0  0  0  0  0
   -4.4454    2.3887   -0.2784 H   0  0  0  0  0  0  0  0  0  0  0  0
   -2.8640    4.3109   -0.6039 H   0  0  0  0  0  0  0  0  0  0  0  0
   -1.5207    3.2213   -0.7762 H   0  0  0  0  0  0  0  0  0  0  0  0
   -3.4912   -1.1894   -2.6382 H   0  0  0  0  0  0  0  0  0  0  0  0
   -2.9588   -1.6315   -0.9854 H   0  0  0  0  0  0  0  0  0  0  0  0
   -4.6724   -1.7134   -1.4193 H   0  0  0  0  0  0  0  0  0  0  0  0
   -4.4969    4.6459   -2.4584 H   0  0  0  0  0  0  0  0  0  0  0  0
   -4.6961    4.7392   -4.9161 H   0  0  0  0  0  0  0  0  0  0  0  0
   -3.1285    3.4602   -6.3494 H   0  0  0  0  0  0  0  0  0  0  0  0
   -1.3692    2.0541   -5.3119 H   0  0  0  0  0  0  0  0  0  0  0  0
   -1.1393    1.9566   -2.8608 H   0  0  0  0  0  0  0  0  0  0  0  0
   -3.7467    0.6052    4.0069 H   0  0  0  0  0  0  0  0  0  0  0  0
   -2.2600    0.8822    3.4333 H   0  0  0  0  0  0  0  0  0  0  0  0
  1  2  1  0  0  0  0
  1  3  1  0  0  0  0
  1  4  2  0  0  0  0
  2  5  1  0  0  0  0
  2 22  1  0  0  0  0
  2 23  1  0  0  0  0
  3 24  1  0  0  0  0
  5  6  1  0  0  0  0
  5 21  1  0  0  0  0
  5 25  1  1  0  0  0
  6  7  1  0  0  0  0
  6 11  2  0  0  0  0
  7 26  1  0  0  0  0
  8 12  1  0  0  0  0
  8 27  1  6  0  0  0
  8  9  1  0  0  0  0
  8  7  1  0  0  0  0
  9 10  1  0  0  0  0
  9 14  2  0  0  0  0
 10 15  1  0  0  0  0
 12 13  1  0  0  0  0
 12 28  1  0  0  0  0
 12 29  1  0  0  0  0
 13 16  2  0  0  0  0
 15 30  1  0  0  0  0
 15 31  1  0  0  0  0
 15 32  1  0  0  0  0
 16 17  1  0  0  0  0
 16 33  1  0  0  0  0
 17 18  2  0  0  0  0
 17 34  1  0  0  0  0
 18 19  1  0  0  0  0
 18 35  1  0  0  0  0
 19 20  2  0  0  0  0
 19 36  1  0  0  0  0
 20 13  1  0  0  0  0
 20 37  1  0  0  0  0
 21 38  1  0  0  0  0
 21 39  1  0  0  0  0
M  END
>  <Mol_ID>
921

>  <Formula>
C14H18N2O5

>  <MolWeight>
294.30312

>  <Cat>
S2036

>  <Name>
Aspartame

>  <Synonyms>
SC-18862,Nutrasweet

>  <Target>
Others

>  <Form>
free base

>  <CAS>
22839-47-0

>  <URL>
http://selleckchem.com/products/aspartame.html

$$$$
