ATB 346
 OpenBabel08302521243D

 45 47  0  0  0  0  0  0  0  0999 V2000
    2.4464    0.6930    0.1125 C   0  0  0  0  0  0  0  0  0  0  0  0
    2.4047   -0.7043   -0.0034 C   0  0  0  0  0  0  0  0  0  0  0  0
    1.1557   -1.3399   -0.0523 C   0  0  0  0  0  0  0  0  0  0  0  0
   -0.0239   -0.5941    0.0117 C   0  0  0  0  0  0  0  0  0  0  0  0
    0.0161    0.8033    0.1255 C   0  0  0  0  0  0  0  0  0  0  0  0
   -1.1579    1.5728    0.1904 C   0  0  0  0  0  0  0  0  0  0  0  0
   -1.1062    2.9654    0.3045 C   0  0  0  0  0  0  0  0  0  0  0  0
    0.1330    3.5997    0.3568 C   0  0  0  0  0  0  0  0  0  0  0  0
    1.3100    2.8486    0.2939 C   0  0  0  0  0  0  0  0  0  0  0  0
    1.2674    1.4527    0.1768 C   0  0  0  0  0  0  0  0  0  0  0  0
    3.7957   -2.4660    1.1424 C   0  0  0  0  0  0  0  0  0  0  0  0
    3.7027   -1.5000   -0.0330 C   0  0  3  0  0  0  0  0  0  0  0  0
    4.0238   -3.6661    1.0583 O   0  0  0  0  0  0  0  0  0  0  0  0
    3.6211   -1.7572    2.3309 O   0  0  0  0  0  0  0  0  0  0  0  0
    3.8525   -2.2395   -1.3621 C   0  0  0  0  0  0  0  0  0  0  0  0
   -2.3247    3.5860    0.3533 O   0  0  0  0  0  0  0  0  0  0  0  0
   -2.3140    5.0033    0.4742 C   0  0  0  0  0  0  0  0  0  0  0  0
    2.6741   -2.1985    3.2718 C   0  0  0  0  0  0  0  0  0  0  0  0
    2.1128   -3.4725    3.2940 C   0  0  0  0  0  0  0  0  0  0  0  0
    1.0924   -3.7619    4.2036 C   0  0  0  0  0  0  0  0  0  0  0  0
    0.6275   -2.7853    5.0956 C   0  0  0  0  0  0  0  0  0  0  0  0
    1.2237   -1.5163    5.0837 C   0  0  0  0  0  0  0  0  0  0  0  0
    2.2473   -1.2247    4.1753 C   0  0  0  0  0  0  0  0  0  0  0  0
   -0.4847   -3.1084    6.0349 C   0  0  0  0  0  0  0  0  0  0  0  0
   -0.6926   -2.4521    7.5590 S   0  0  0  0  0  0  0  0  0  0  0  0
   -1.4151   -4.0208    5.6007 N   0  0  0  0  0  0  0  0  0  0  0  0
    3.4087    1.1991    0.1614 H   0  0  0  0  0  0  0  0  0  0  0  0
    1.0844   -2.4234   -0.1287 H   0  0  0  0  0  0  0  0  0  0  0  0
   -0.9787   -1.1146   -0.0241 H   0  0  0  0  0  0  0  0  0  0  0  0
   -2.1312    1.0878    0.1516 H   0  0  0  0  0  0  0  0  0  0  0  0
    0.2231    4.6767    0.4458 H   0  0  0  0  0  0  0  0  0  0  0  0
    2.2648    3.3678    0.3363 H   0  0  0  0  0  0  0  0  0  0  0  0
    4.5593   -0.8198    0.0627 H   0  0  0  0  0  0  0  0  0  0  0  0
    3.7866   -1.5463   -2.2083 H   0  0  0  0  0  0  0  0  0  0  0  0
    4.8221   -2.7469   -1.4148 H   0  0  0  0  0  0  0  0  0  0  0  0
    3.0790   -3.0048   -1.4939 H   0  0  0  0  0  0  0  0  0  0  0  0
   -1.8389    5.3153    1.4107 H   0  0  0  0  0  0  0  0  0  0  0  0
   -1.8292    5.4700   -0.3894 H   0  0  0  0  0  0  0  0  0  0  0  0
   -3.3528    5.3467    0.4982 H   0  0  0  0  0  0  0  0  0  0  0  0
    2.4378   -4.2585    2.6218 H   0  0  0  0  0  0  0  0  0  0  0  0
    0.6803   -4.7676    4.2091 H   0  0  0  0  0  0  0  0  0  0  0  0
    0.8901   -0.7304    5.7557 H   0  0  0  0  0  0  0  0  0  0  0  0
    2.6845   -0.2299    4.1556 H   0  0  0  0  0  0  0  0  0  0  0  0
   -1.4400   -4.4003    4.6638 H   0  0  0  0  0  0  0  0  0  0  0  0
   -2.1972   -4.2367    6.2090 H   0  0  0  0  0  0  0  0  0  0  0  0
  1  2  2  0  0  0  0
  1 10  1  0  0  0  0
  1 27  1  0  0  0  0
  2  3  1  0  0  0  0
  2 12  1  0  0  0  0
  3  4  2  0  0  0  0
  3 28  1  0  0  0  0
  4  5  1  0  0  0  0
  4 29  1  0  0  0  0
  5  6  1  0  0  0  0
  5 10  2  0  0  0  0
  6  7  2  0  0  0  0
  6 30  1  0  0  0  0
  7  8  1  0  0  0  0
  7 16  1  0  0  0  0
  8  9  2  0  0  0  0
  8 31  1  0  0  0  0
  9 10  1  0  0  0  0
  9 32  1  0  0  0  0
 11 12  1  0  0  0  0
 11 13  2  0  0  0  0
 11 14  1  0  0  0  0
 12 15  1  0  0  0  0
 12 33  1  0  0  0  0
 14 18  1  0  0  0  0
 15 34  1  0  0  0  0
 15 35  1  0  0  0  0
 15 36  1  0  0  0  0
 16 17  1  0  0  0  0
 17 37  1  0  0  0  0
 17 38  1  0  0  0  0
 17 39  1  0  0  0  0
 18 19  2  0  0  0  0
 18 23  1  0  0  0  0
 19 20  1  0  0  0  0
 19 40  1  0  0  0  0
 20 21  2  0  0  0  0
 20 41  1  0  0  0  0
 21 22  1  0  0  0  0
 21 24  1  0  0  0  0
 22 23  2  0  0  0  0
 22 42  1  0  0  0  0
 23 43  1  0  0  0  0
 24 25  2  0  0  0  0
 24 26  1  0  0  0  0
 26 44  1  0  0  0  0
 26 45  1  0  0  0  0
M  END
>  <Mol_ID>
5001

>  <Formula>
C21H19NO3S

>  <MolWeight>
365.44546

>  <Cat>
S6615

>  <Name>
ATB 346

>  <Synonyms>
N/A

>  <Target>
Apoptosis related,COX,Others

>  <Form>
Free Base

>  <CAS>
1226895-20-0

>  <URL>
http://www.selleckchem.com/products/atb-346.html

$$$$
