Atglistatin.cdx
 OpenBabel08302519583D

 42 43  0  0  0  0  0  0  0  0999 V2000
    0.1186   -0.9135    1.0113 C   0  0  0  0  0  0  0  0  0  0  0  0
    0.2075   -1.4786   -0.2642 C   0  0  0  0  0  0  0  0  0  0  0  0
   -0.0497   -0.5908   -1.3261 C   0  0  0  0  0  0  0  0  0  0  0  0
   -0.4189    0.7566   -1.1290 C   0  0  0  0  0  0  0  0  0  0  0  0
   -0.5261    1.2949    0.1532 C   0  0  0  0  0  0  0  0  0  0  0  0
   -0.2251    0.4311    1.2153 C   0  0  0  0  0  0  0  0  0  0  0  0
   -0.9687    2.6859    0.4116 C   0  0  0  0  0  0  0  0  0  0  0  0
    0.5514   -2.8080   -0.4722 N   0  0  0  0  0  0  0  0  0  0  0  0
    0.6655   -3.7924    0.6003 C   0  0  0  0  0  0  0  0  0  0  0  0
    0.5538   -3.3632   -1.8223 C   0  0  0  0  0  0  0  0  0  0  0  0
   -1.7377    2.9724    1.5570 C   0  0  0  0  0  0  0  0  0  0  0  0
   -2.1516    4.2625    1.8975 C   0  0  0  0  0  0  0  0  0  0  0  0
   -1.7848    5.3171    1.0624 C   0  0  0  0  0  0  0  0  0  0  0  0
   -1.0560    5.0644   -0.1044 C   0  0  0  0  0  0  0  0  0  0  0  0
   -0.6543    3.7623   -0.4273 C   0  0  0  0  0  0  0  0  0  0  0  0
   -2.9021    4.5426    3.0659 N   0  0  0  0  0  0  0  0  0  0  0  0
   -3.5824    3.6147    3.8326 C   0  0  0  0  0  0  0  0  0  0  0  0
   -4.1525    4.1086    5.0016 N   0  0  0  0  0  0  0  0  0  0  0  0
   -3.7045    2.4281    3.5352 O   0  0  0  0  0  0  0  0  0  0  0  0
   -4.8818    3.1807    5.8546 C   0  0  0  0  0  0  0  0  0  0  0  0
   -4.0519    5.4776    5.4738 C   0  0  0  0  0  0  0  0  0  0  0  0
    0.3111   -1.4879    1.9089 H   0  0  0  0  0  0  0  0  0  0  0  0
    0.0120   -0.9291   -2.3559 H   0  0  0  0  0  0  0  0  0  0  0  0
   -0.6333    1.3620   -2.0053 H   0  0  0  0  0  0  0  0  0  0  0  0
   -0.2598    0.7845    2.2442 H   0  0  0  0  0  0  0  0  0  0  0  0
   -0.1657   -4.5045    0.5487 H   0  0  0  0  0  0  0  0  0  0  0  0
    1.6001   -4.3521    0.4803 H   0  0  0  0  0  0  0  0  0  0  0  0
    0.6839   -3.3874    1.6128 H   0  0  0  0  0  0  0  0  0  0  0  0
   -0.4242   -3.2471   -2.3023 H   0  0  0  0  0  0  0  0  0  0  0  0
    1.3259   -2.8855   -2.4345 H   0  0  0  0  0  0  0  0  0  0  0  0
    0.7768   -4.4366   -1.8098 H   0  0  0  0  0  0  0  0  0  0  0  0
   -2.0016    2.1443    2.2047 H   0  0  0  0  0  0  0  0  0  0  0  0
   -2.0762    6.3380    1.2885 H   0  0  0  0  0  0  0  0  0  0  0  0
   -0.7990    5.8855   -0.7707 H   0  0  0  0  0  0  0  0  0  0  0  0
   -0.0747    3.6049   -1.3337 H   0  0  0  0  0  0  0  0  0  0  0  0
   -3.0763    5.5140    3.2593 H   0  0  0  0  0  0  0  0  0  0  0  0
   -4.4051    3.1560    6.8391 H   0  0  0  0  0  0  0  0  0  0  0  0
   -5.9119    3.5341    5.9523 H   0  0  0  0  0  0  0  0  0  0  0  0
   -4.9024    2.1626    5.4566 H   0  0  0  0  0  0  0  0  0  0  0  0
   -2.9975    5.7421    5.5916 H   0  0  0  0  0  0  0  0  0  0  0  0
   -4.5177    6.1439    4.7427 H   0  0  0  0  0  0  0  0  0  0  0  0
   -4.5634    5.5895    6.4346 H   0  0  0  0  0  0  0  0  0  0  0  0
  1  2  2  0  0  0  0
  1 22  1  0  0  0  0
  2  3  1  0  0  0  0
  2  8  1  0  0  0  0
  3  4  2  0  0  0  0
  3 23  1  0  0  0  0
  4  5  1  0  0  0  0
  4 24  1  0  0  0  0
  5  6  2  0  0  0  0
  5  7  1  0  0  0  0
  6  1  1  0  0  0  0
  6 25  1  0  0  0  0
  7 11  2  0  0  0  0
  8  9  1  0  0  0  0
  8 10  1  0  0  0  0
  9 26  1  0  0  0  0
  9 27  1  0  0  0  0
  9 28  1  0  0  0  0
 10 29  1  0  0  0  0
 10 30  1  0  0  0  0
 10 31  1  0  0  0  0
 11 12  1  0  0  0  0
 11 32  1  0  0  0  0
 12 13  2  0  0  0  0
 12 16  1  0  0  0  0
 13 14  1  0  0  0  0
 13 33  1  0  0  0  0
 14 15  2  0  0  0  0
 14 34  1  0  0  0  0
 15  7  1  0  0  0  0
 15 35  1  0  0  0  0
 16 17  1  0  0  0  0
 16 36  1  0  0  0  0
 17 18  1  0  0  0  0
 17 19  2  0  0  0  0
 18 20  1  0  0  0  0
 18 21  1  0  0  0  0
 20 37  1  0  0  0  0
 20 38  1  0  0  0  0
 20 39  1  0  0  0  0
 21 40  1  0  0  0  0
 21 41  1  0  0  0  0
 21 42  1  0  0  0  0
M  END
>  <Mol_ID>
2360

>  <Formula>
C17H21N3O

>  <MolWeight>
283.36814

>  <Cat>
S7364

>  <Name>
Atglistatin

>  <Synonyms>
N/A

>  <Target>
Lipase

>  <Form>
free base

>  <CAS>
1469924-27-3

>  <URL>
http://selleckchem.com/products/atglistatin.html

$$$$
