ATROVENT HFA (ipratropium bromide).cdx
 OpenBabel08302520413D

 55 56  0  0  0  0  0  0  0  0999 V2000
    1.1089    2.7988   -3.3259 Br  0  5  0  0  0  0  0  0  0  0  0  0
    0.3860    0.4449    1.1148 C   0  0  3  0  0  0  0  0  0  0  0  0
    0.1291   -0.4926    2.3304 C   0  0  0  0  0  0  0  0  0  0  0  0
    0.4853   -1.9090    1.8582 C   0  0  0  0  0  0  0  0  0  0  0  0
    0.7388   -1.7533    0.3603 C   0  0  3  0  0  0  0  0  0  0  0  0
    1.4343   -0.3625    0.2979 N   0  3  3  0  0  0  0  0  0  0  0  0
   -0.6282   -1.7403   -0.4215 C   0  0  0  0  0  0  0  0  0  0  0  0
   -1.6087   -0.6388    0.0081 C   0  0  3  0  0  0  0  0  0  0  0  0
   -0.8893    0.6740    0.3031 C   0  0  0  0  0  0  0  0  0  0  0  0
    1.6350    0.0471   -1.1732 C   0  0  0  0  0  0  0  0  0  0  0  0
    2.8550   -0.2476    1.0245 C   0  0  0  0  0  0  0  0  0  0  0  0
    3.9705   -0.9879    0.2825 C   0  0  0  0  0  0  0  0  0  0  0  0
    3.2723    1.2191    1.2607 C   0  0  0  0  0  0  0  0  0  0  0  0
   -2.6520   -0.3837   -0.9629 O   0  0  0  0  0  0  0  0  0  0  0  0
   -3.8027   -1.0967   -0.8169 C   0  0  0  0  0  0  0  0  0  0  0  0
   -4.9578   -0.5378   -1.6679 C   0  0  3  0  0  0  0  0  0  0  0  0
   -3.9128   -2.0464   -0.0477 O   0  0  0  0  0  0  0  0  0  0  0  0
   -4.8895   -0.9980   -3.1114 C   0  0  0  0  0  0  0  0  0  0  0  0
   -6.2975   -0.9348   -1.0104 C   0  0  0  0  0  0  0  0  0  0  0  0
   -7.4502   -0.4219   -1.6815 O   0  0  0  0  0  0  0  0  0  0  0  0
   -4.9193   -2.3635   -3.4352 C   0  0  0  0  0  0  0  0  0  0  0  0
   -4.9566   -2.7753   -4.7663 C   0  0  0  0  0  0  0  0  0  0  0  0
   -4.9674   -1.8299   -5.7895 C   0  0  0  0  0  0  0  0  0  0  0  0
   -4.9328   -0.4722   -5.4812 C   0  0  0  0  0  0  0  0  0  0  0  0
   -4.8921   -0.0560   -4.1499 C   0  0  0  0  0  0  0  0  0  0  0  0
    0.8002    1.4075    1.4118 H   0  0  0  0  0  0  0  0  0  0  0  0
    0.7559   -0.2166    3.1847 H   0  0  0  0  0  0  0  0  0  0  0  0
   -0.9060   -0.4447    2.6848 H   0  0  0  0  0  0  0  0  0  0  0  0
   -0.2931   -2.6453    2.0853 H   0  0  0  0  0  0  0  0  0  0  0  0
    1.3913   -2.2632    2.3637 H   0  0  0  0  0  0  0  0  0  0  0  0
    1.4206   -2.5079   -0.0419 H   0  0  0  0  0  0  0  0  0  0  0  0
   -1.1191   -2.7123   -0.2658 H   0  0  0  0  0  0  0  0  0  0  0  0
   -0.4517   -1.6964   -1.5012 H   0  0  0  0  0  0  0  0  0  0  0  0
   -2.0955   -0.9492    0.9429 H   0  0  0  0  0  0  0  0  0  0  0  0
   -0.6869    1.2335   -0.6136 H   0  0  0  0  0  0  0  0  0  0  0  0
   -1.5624    1.3285    0.8700 H   0  0  0  0  0  0  0  0  0  0  0  0
    2.1686    0.9920   -1.1942 H   0  0  0  0  0  0  0  0  0  0  0  0
    2.2254   -0.7353   -1.6577 H   0  0  0  0  0  0  0  0  0  0  0  0
    0.6804    0.1092   -1.6870 H   0  0  0  0  0  0  0  0  0  0  0  0
    2.7545   -0.7112    2.0090 H   0  0  0  0  0  0  0  0  0  0  0  0
    4.2331   -0.5044   -0.6623 H   0  0  0  0  0  0  0  0  0  0  0  0
    4.8794   -0.9858    0.8922 H   0  0  0  0  0  0  0  0  0  0  0  0
    3.7126   -2.0359    0.0925 H   0  0  0  0  0  0  0  0  0  0  0  0
    2.7432    1.6458    2.1194 H   0  0  0  0  0  0  0  0  0  0  0  0
    4.3386    1.2899    1.5039 H   0  0  0  0  0  0  0  0  0  0  0  0
    3.0961    1.8683    0.4004 H   0  0  0  0  0  0  0  0  0  0  0  0
   -4.8899    0.5570   -1.6268 H   0  0  0  0  0  0  0  0  0  0  0  0
   -6.4168   -2.0224   -0.9530 H   0  0  0  0  0  0  0  0  0  0  0  0
   -6.3392   -0.5586    0.0182 H   0  0  0  0  0  0  0  0  0  0  0  0
   -7.2061    0.3702   -2.1893 H   0  0  0  0  0  0  0  0  0  0  0  0
   -4.9372   -3.1213   -2.6528 H   0  0  0  0  0  0  0  0  0  0  0  0
   -4.9905   -3.8349   -5.0066 H   0  0  0  0  0  0  0  0  0  0  0  0
   -5.0098   -2.1512   -6.8265 H   0  0  0  0  0  0  0  0  0  0  0  0
   -4.9421    0.2656   -6.2802 H   0  0  0  0  0  0  0  0  0  0  0  0
   -4.8765    1.0108   -3.9376 H   0  0  0  0  0  0  0  0  0  0  0  0
  2  3  1  0  0  0  0
  2  6  1  0  0  0  0
  2  9  1  0  0  0  0
  2 26  1  0  0  0  0
  3  4  1  0  0  0  0
  3 27  1  0  0  0  0
  3 28  1  0  0  0  0
  4  5  1  0  0  0  0
  4 29  1  0  0  0  0
  4 30  1  0  0  0  0
  5  6  1  0  0  0  0
  5  7  1  0  0  0  0
  5 31  1  0  0  0  0
  6 10  1  0  0  0  0
  6 11  1  0  0  0  0
  7  8  1  0  0  0  0
  7 32  1  0  0  0  0
  7 33  1  0  0  0  0
  8 14  1  0  0  0  0
  8 34  1  0  0  0  0
  9  8  1  0  0  0  0
  9 35  1  0  0  0  0
  9 36  1  0  0  0  0
 10 37  1  0  0  0  0
 10 38  1  0  0  0  0
 10 39  1  0  0  0  0
 11 12  1  0  0  0  0
 11 13  1  0  0  0  0
 11 40  1  0  0  0  0
 12 41  1  0  0  0  0
 12 42  1  0  0  0  0
 12 43  1  0  0  0  0
 13 44  1  0  0  0  0
 13 45  1  0  0  0  0
 13 46  1  0  0  0  0
 14 15  1  0  0  0  0
 15 16  1  0  0  0  0
 15 17  2  0  0  0  0
 16 18  1  0  0  0  0
 16 19  1  0  0  0  0
 16 47  1  0  0  0  0
 18 21  2  0  0  0  0
 19 20  1  0  0  0  0
 19 48  1  0  0  0  0
 19 49  1  0  0  0  0
 20 50  1  0  0  0  0
 21 22  1  0  0  0  0
 21 51  1  0  0  0  0
 22 23  2  0  0  0  0
 22 52  1  0  0  0  0
 23 24  1  0  0  0  0
 23 53  1  0  0  0  0
 24 25  2  0  0  0  0
 24 54  1  0  0  0  0
 25 18  1  0  0  0  0
 25 55  1  0  0  0  0
M  CHG  2   1  -1   6   1
M  END
>  <Mol_ID>
390

>  <Formula>
C20H30BrNO3

>  <MolWeight>
412.3611

>  <Cat>
S1683

>  <Name>
Ipratropium Bromide

>  <Synonyms>
N/A

>  <Target>
AChR

>  <Form>
Bromide

>  <CAS>
22254-24-6

>  <URL>
http://selleckchem.com/products/Ipratropium-bromide.html

$$$$
