Atropine
 OpenBabel08302521303D

 44 46  0  0  0  0  0  0  0  0999 V2000
    0.6266   -0.7911   -0.3287 O   0  0  0  0  0  0  0  0  0  0  0  0
   -0.2270   -0.7476    1.7992 O   0  0  0  0  0  0  0  0  0  0  0  0
   -2.8326   -2.7202   -1.6396 O   0  0  0  0  0  0  0  0  0  0  0  0
    3.9860   -2.7575   -0.0299 N   0  0  0  0  0  0  0  0  0  0  0  0
    3.1635   -2.4628   -1.1963 C   0  0  1  0  0  0  0  0  0  0  0  0
    3.1072   -2.4994    1.1102 C   0  0  2  0  0  0  0  0  0  0  0  0
    1.9722   -3.3696   -0.8418 C   0  0  0  0  0  0  0  0  0  0  0  0
    1.9514   -3.4111    0.6942 C   0  0  0  0  0  0  0  0  0  0  0  0
    2.7857   -0.9627   -1.2898 C   0  0  0  0  0  0  0  0  0  0  0  0
    2.6767   -1.0223    1.2208 C   0  0  0  0  0  0  0  0  0  0  0  0
    2.0175   -0.4588   -0.0502 C   0  0  2  0  0  0  0  0  0  0  0  0
    5.3176   -2.2045   -0.0058 C   0  0  0  0  0  0  0  0  0  0  0  0
   -0.3630   -0.8783    0.5903 C   0  0  0  0  0  0  0  0  0  0  0  0
   -1.7121   -1.1518   -0.0764 C   0  0  3  0  0  0  0  0  0  0  0  0
   -2.3241    0.1245   -0.6375 C   0  0  0  0  0  0  0  0  0  0  0  0
   -1.5896   -2.3354   -1.0526 C   0  0  0  0  0  0  0  0  0  0  0  0
   -2.4503    0.3762   -2.0072 C   0  0  0  0  0  0  0  0  0  0  0  0
   -2.7933    1.0986    0.2649 C   0  0  0  0  0  0  0  0  0  0  0  0
   -3.0626    1.5457   -2.4684 C   0  0  0  0  0  0  0  0  0  0  0  0
   -3.3995    2.2671   -0.1949 C   0  0  0  0  0  0  0  0  0  0  0  0
   -3.5413    2.4873   -1.5637 C   0  0  0  0  0  0  0  0  0  0  0  0
   -3.4956   -2.8072   -0.9332 H   0  0  0  0  0  0  0  0  0  0  0  0
    3.6261   -2.7909   -2.1303 H   0  0  0  0  0  0  0  0  0  0  0  0
    3.5494   -2.8352    2.0544 H   0  0  0  0  0  0  0  0  0  0  0  0
    1.0363   -3.0210   -1.2742 H   0  0  0  0  0  0  0  0  0  0  0  0
    2.1365   -4.3840   -1.2250 H   0  0  0  0  0  0  0  0  0  0  0  0
    2.1444   -4.4396    1.0250 H   0  0  0  0  0  0  0  0  0  0  0  0
    0.9895   -3.1184    1.1202 H   0  0  0  0  0  0  0  0  0  0  0  0
    3.6979   -0.3674   -1.4176 H   0  0  0  0  0  0  0  0  0  0  0  0
    2.1781   -0.8056   -2.1912 H   0  0  0  0  0  0  0  0  0  0  0  0
    3.5756   -0.4240    1.4235 H   0  0  0  0  0  0  0  0  0  0  0  0
    2.0409   -0.8952    2.0988 H   0  0  0  0  0  0  0  0  0  0  0  0
    2.0578    0.6380   -0.0277 H   0  0  0  0  0  0  0  0  0  0  0  0
    5.3528   -1.1132    0.0216 H   0  0  0  0  0  0  0  0  0  0  0  0
    5.8630   -2.5908    0.8619 H   0  0  0  0  0  0  0  0  0  0  0  0
    5.8710   -2.5437   -0.8894 H   0  0  0  0  0  0  0  0  0  0  0  0
   -2.3962   -1.4937    0.7134 H   0  0  0  0  0  0  0  0  0  0  0  0
   -0.9031   -2.1151   -1.8766 H   0  0  0  0  0  0  0  0  0  0  0  0
   -1.1976   -3.2144   -0.5286 H   0  0  0  0  0  0  0  0  0  0  0  0
   -2.1044   -0.3406   -2.7499 H   0  0  0  0  0  0  0  0  0  0  0  0
   -2.7010    0.9437    1.3399 H   0  0  0  0  0  0  0  0  0  0  0  0
   -3.1785    1.7117   -3.5392 H   0  0  0  0  0  0  0  0  0  0  0  0
   -3.7695    3.0019    0.5155 H   0  0  0  0  0  0  0  0  0  0  0  0
   -4.0272    3.3904   -1.9218 H   0  0  0  0  0  0  0  0  0  0  0  0
  1 13  1  0  0  0  0
  2 13  2  0  0  0  0
  3 16  1  0  0  0  0
  3 22  1  0  0  0  0
  4 12  1  0  0  0  0
  5  4  1  0  0  0  0
  5  7  1  0  0  0  0
  5  9  1  0  0  0  0
  5 23  1  6  0  0  0
  6  4  1  0  0  0  0
  6  8  1  0  0  0  0
  6 10  1  0  0  0  0
  6 24  1  1  0  0  0
  7  8  1  0  0  0  0
  7 25  1  0  0  0  0
  7 26  1  0  0  0  0
  8 27  1  0  0  0  0
  8 28  1  0  0  0  0
  9 11  1  0  0  0  0
  9 29  1  0  0  0  0
  9 30  1  0  0  0  0
 10 11  1  0  0  0  0
 10 31  1  0  0  0  0
 10 32  1  0  0  0  0
 11  1  1  0  0  0  0
 11 33  1  1  0  0  0
 12 34  1  0  0  0  0
 12 35  1  0  0  0  0
 12 36  1  0  0  0  0
 13 14  1  0  0  0  0
 14 15  1  0  0  0  0
 14 16  1  0  0  0  0
 14 37  1  0  0  0  0
 15 17  2  0  0  0  0
 15 18  1  0  0  0  0
 16 38  1  0  0  0  0
 16 39  1  0  0  0  0
 17 19  1  0  0  0  0
 17 40  1  0  0  0  0
 18 20  2  0  0  0  0
 18 41  1  0  0  0  0
 19 21  2  0  0  0  0
 19 42  1  0  0  0  0
 20 21  1  0  0  0  0
 20 43  1  0  0  0  0
 21 44  1  0  0  0  0
M  END
>  <Mol_ID>
5631

>  <Formula>
C17H23NO3

>  <MolWeight>
289.36942

>  <Cat>
S4713

>  <Name>
Atropine

>  <Synonyms>
N/A

>  <Target>
AChR

>  <Form>
Free Base

>  <CAS>
51-55-8

>  <URL>
http://www.selleckchem.com/products/atropine.html

$$$$
