AU1235
 OpenBabel08302521283D

 42 45  0  0  0  0  0  0  0  0999 V2000
   -2.1717   -6.6356    0.0117 F   0  0  0  0  0  0  0  0  0  0  0  0
   -3.6338   -8.7421    0.8368 F   0  0  0  0  0  0  0  0  0  0  0  0
   -6.2981   -8.4619    1.3768 F   0  0  0  0  0  0  0  0  0  0  0  0
   -2.0390   -2.3023   -0.4545 O   0  0  0  0  0  0  0  0  0  0  0  0
   -1.1051   -4.3190    0.0193 N   0  0  0  0  0  0  0  0  0  0  0  0
   -3.4283   -3.9825   -0.2039 N   0  0  0  0  0  0  0  0  0  0  0  0
    0.3064   -3.8667    0.0265 C   0  0  3  0  0  0  0  0  0  0  0  0
    2.0277   -2.3456    1.1373 C   0  0  3  0  0  0  0  0  0  0  0  0
    2.2194   -2.8548   -1.3227 C   0  0  3  0  0  0  0  0  0  0  0  0
    2.7182   -4.6400    0.3770 C   0  0  3  0  0  0  0  0  0  0  0  0
    0.5548   -2.7936    1.1229 C   0  0  0  0  0  0  0  0  0  0  0  0
    0.7453   -3.3042   -1.3525 C   0  0  0  0  0  0  0  0  0  0  0  0
    1.2364   -5.0709    0.3458 C   0  0  0  0  0  0  0  0  0  0  0  0
    2.4075   -1.7790   -0.2407 C   0  0  0  0  0  0  0  0  0  0  0  0
    2.9172   -3.5582    1.4499 C   0  0  0  0  0  0  0  0  0  0  0  0
    3.1139   -4.0600   -0.9898 C   0  0  0  0  0  0  0  0  0  0  0  0
   -2.1582   -3.5101   -0.2374 C   0  0  0  0  0  0  0  0  0  0  0  0
   -4.0701   -5.1955    0.1103 C   0  0  0  0  0  0  0  0  0  0  0  0
   -3.4715   -6.4455    0.2751 C   0  0  0  0  0  0  0  0  0  0  0  0
   -5.4683   -5.1050    0.2914 C   0  0  0  0  0  0  0  0  0  0  0  0
   -4.2277   -7.5462    0.6828 C   0  0  0  0  0  0  0  0  0  0  0  0
   -6.2206   -6.2029    0.7197 C   0  0  0  0  0  0  0  0  0  0  0  0
   -5.5848   -7.4167    0.9308 C   0  0  0  0  0  0  0  0  0  0  0  0
   -1.2620   -5.3085   -0.1178 H   0  0  0  0  0  0  0  0  0  0  0  0
   -4.0439   -3.1885   -0.3413 H   0  0  0  0  0  0  0  0  0  0  0  0
    2.1726   -1.5755    1.9036 H   0  0  0  0  0  0  0  0  0  0  0  0
    2.5018   -2.4470   -2.3002 H   0  0  0  0  0  0  0  0  0  0  0  0
    3.3509   -5.5048    0.6062 H   0  0  0  0  0  0  0  0  0  0  0  0
   -0.0789   -1.9132    0.9711 H   0  0  0  0  0  0  0  0  0  0  0  0
    0.2849   -3.1992    2.1069 H   0  0  0  0  0  0  0  0  0  0  0  0
    0.6100   -4.0695   -2.1281 H   0  0  0  0  0  0  0  0  0  0  0  0
    0.1236   -2.4529   -1.6503 H   0  0  0  0  0  0  0  0  0  0  0  0
    0.9608   -5.5156    1.3106 H   0  0  0  0  0  0  0  0  0  0  0  0
    1.1021   -5.8590   -0.4071 H   0  0  0  0  0  0  0  0  0  0  0  0
    3.4520   -1.4408   -0.2291 H   0  0  0  0  0  0  0  0  0  0  0  0
    1.7938   -0.8996   -0.4714 H   0  0  0  0  0  0  0  0  0  0  0  0
    3.9704   -3.2511    1.4827 H   0  0  0  0  0  0  0  0  0  0  0  0
    2.6735   -3.9591    2.4408 H   0  0  0  0  0  0  0  0  0  0  0  0
    3.0201   -4.8265   -1.7687 H   0  0  0  0  0  0  0  0  0  0  0  0
    4.1669   -3.7506   -0.9757 H   0  0  0  0  0  0  0  0  0  0  0  0
   -5.9894   -4.1611    0.1319 H   0  0  0  0  0  0  0  0  0  0  0  0
   -7.2881   -6.1116    0.9017 H   0  0  0  0  0  0  0  0  0  0  0  0
  1 19  1  0  0  0  0
  2 21  1  0  0  0  0
  3 23  1  0  0  0  0
  4 17  2  0  0  0  0
  5  7  1  0  0  0  0
  5 17  1  0  0  0  0
  5 24  1  0  0  0  0
  6 17  1  0  0  0  0
  6 18  1  0  0  0  0
  6 25  1  0  0  0  0
  7 11  1  0  0  0  0
  7 12  1  0  0  0  0
  7 13  1  0  0  0  0
  8 11  1  0  0  0  0
  8 14  1  0  0  0  0
  8 15  1  0  0  0  0
  8 26  1  0  0  0  0
  9 12  1  0  0  0  0
  9 14  1  0  0  0  0
  9 16  1  0  0  0  0
  9 27  1  0  0  0  0
 10 13  1  0  0  0  0
 10 15  1  0  0  0  0
 10 16  1  0  0  0  0
 10 28  1  0  0  0  0
 11 29  1  0  0  0  0
 11 30  1  0  0  0  0
 12 31  1  0  0  0  0
 12 32  1  0  0  0  0
 13 33  1  0  0  0  0
 13 34  1  0  0  0  0
 14 35  1  0  0  0  0
 14 36  1  0  0  0  0
 15 37  1  0  0  0  0
 15 38  1  0  0  0  0
 16 39  1  0  0  0  0
 16 40  1  0  0  0  0
 18 19  2  0  0  0  0
 18 20  1  0  0  0  0
 19 21  1  0  0  0  0
 20 22  2  0  0  0  0
 20 41  1  0  0  0  0
 21 23  2  0  0  0  0
 22 23  1  0  0  0  0
 22 42  1  0  0  0  0
M  END
>  <Mol_ID>
5381

>  <Formula>
C17H19F3N2O

>  <MolWeight>
324.3407696

>  <Cat>
S0464

>  <Name>
AU1235

>  <Synonyms>
N/A

>  <Target>
MmpL3

>  <Form>
Free Base

>  <CAS>
1338780-86-1

>  <URL>
https://www.selleckchem.com/products/au1235.html

$$$$
