AVL-292.cdx
 OpenBabel08302519583D

 53 55  0  0  0  0  0  0  0  0999 V2000
   -0.7940   -0.0270    0.0662 C   0  0  0  0  0  0  0  0  0  0  0  0
   -0.1055    1.1517    0.0258 C   0  0  0  0  0  0  0  0  0  0  0  0
    1.2344    1.2095    0.0752 N   0  0  0  0  0  0  0  0  0  0  0  0
    1.9035    0.0444    0.1579 C   0  0  0  0  0  0  0  0  0  0  0  0
    1.3045   -1.1554    0.1532 N   0  0  0  0  0  0  0  0  0  0  0  0
   -0.0450   -1.1934    0.1077 C   0  0  0  0  0  0  0  0  0  0  0  0
   -2.1336   -0.0498    0.0217 F   0  0  0  0  0  0  0  0  0  0  0  0
   -0.7545   -2.4212    0.1289 N   0  0  0  0  0  0  0  0  0  0  0  0
    3.2935    0.0567    0.2456 N   0  0  0  0  0  0  0  0  0  0  0  0
   -0.3210   -3.7120   -0.2348 C   0  0  0  0  0  0  0  0  0  0  0  0
   -1.2952   -4.6418   -0.6318 C   0  0  0  0  0  0  0  0  0  0  0  0
   -0.9644   -5.9288   -1.0624 C   0  0  0  0  0  0  0  0  0  0  0  0
    0.3794   -6.3154   -1.0454 C   0  0  0  0  0  0  0  0  0  0  0  0
    1.3590   -5.4245   -0.6045 C   0  0  0  0  0  0  0  0  0  0  0  0
    1.0058   -4.1382   -0.1919 C   0  0  0  0  0  0  0  0  0  0  0  0
   -1.9242   -6.8679   -1.5055 N   0  0  0  0  0  0  0  0  0  0  0  0
   -3.2632   -6.6124   -1.7296 C   0  0  0  0  0  0  0  0  0  0  0  0
   -4.0286   -7.8372   -2.0931 C   0  0  0  0  0  0  0  0  0  0  0  0
   -3.8251   -5.5264   -1.6753 O   0  0  0  0  0  0  0  0  0  0  0  0
   -5.3290   -7.7320   -2.3979 C   0  0  0  0  0  0  0  0  0  0  0  0
    4.0951    1.0614    0.8101 C   0  0  0  0  0  0  0  0  0  0  0  0
    3.6268    1.8944    1.8333 C   0  0  0  0  0  0  0  0  0  0  0  0
    4.3907    2.9636    2.3125 C   0  0  0  0  0  0  0  0  0  0  0  0
    5.6409    3.2295    1.7624 C   0  0  0  0  0  0  0  0  0  0  0  0
    6.1449    2.3624    0.7886 C   0  0  0  0  0  0  0  0  0  0  0  0
    5.3893    1.2742    0.3312 C   0  0  0  0  0  0  0  0  0  0  0  0
    6.4344    4.3066    2.0487 O   0  0  0  0  0  0  0  0  0  0  0  0
    6.0729    5.1117    3.1718 C   0  0  0  0  0  0  0  0  0  0  0  0
    6.8581    6.4218    3.1288 C   0  0  0  0  0  0  0  0  0  0  0  0
    6.5353    7.1976    4.2846 O   0  0  0  0  0  0  0  0  0  0  0  0
    7.2698    8.4139    4.3283 C   0  0  0  0  0  0  0  0  0  0  0  0
   -0.6194    2.1026   -0.0499 H   0  0  0  0  0  0  0  0  0  0  0  0
   -1.7315   -2.2668   -0.1137 H   0  0  0  0  0  0  0  0  0  0  0  0
    3.6512   -0.8855    0.3372 H   0  0  0  0  0  0  0  0  0  0  0  0
   -2.3327   -4.3258   -0.6026 H   0  0  0  0  0  0  0  0  0  0  0  0
    0.6865   -7.3010   -1.3785 H   0  0  0  0  0  0  0  0  0  0  0  0
    2.4041   -5.7225   -0.5851 H   0  0  0  0  0  0  0  0  0  0  0  0
    1.7923   -3.4764    0.1569 H   0  0  0  0  0  0  0  0  0  0  0  0
   -1.5774   -7.7957   -1.7070 H   0  0  0  0  0  0  0  0  0  0  0  0
   -3.5346   -8.7989   -2.0853 H   0  0  0  0  0  0  0  0  0  0  0  0
   -5.9255   -8.6027   -2.6457 H   0  0  0  0  0  0  0  0  0  0  0  0
   -5.8345   -6.7677   -2.3981 H   0  0  0  0  0  0  0  0  0  0  0  0
    2.6404    1.7316    2.2613 H   0  0  0  0  0  0  0  0  0  0  0  0
    3.9497    3.5795    3.0873 H   0  0  0  0  0  0  0  0  0  0  0  0
    7.1260    2.5491    0.3594 H   0  0  0  0  0  0  0  0  0  0  0  0
    5.7958    0.6370   -0.4500 H   0  0  0  0  0  0  0  0  0  0  0  0
    5.0081    5.3692    3.1791 H   0  0  0  0  0  0  0  0  0  0  0  0
    6.3076    4.5688    4.0951 H   0  0  0  0  0  0  0  0  0  0  0  0
    7.9346    6.2189    3.0948 H   0  0  0  0  0  0  0  0  0  0  0  0
    6.5929    6.9811    2.2229 H   0  0  0  0  0  0  0  0  0  0  0  0
    8.3419    8.2095    4.4054 H   0  0  0  0  0  0  0  0  0  0  0  0
    7.0633    9.0230    3.4431 H   0  0  0  0  0  0  0  0  0  0  0  0
    6.9578    8.9719    5.2157 H   0  0  0  0  0  0  0  0  0  0  0  0
  1  2  2  0  0  0  0
  1  7  1  0  0  0  0
  2  3  1  0  0  0  0
  2 32  1  0  0  0  0
  3  4  2  0  0  0  0
  4  5  1  0  0  0  0
  4  9  1  0  0  0  0
  5  6  2  0  0  0  0
  6  1  1  0  0  0  0
  6  8  1  0  0  0  0
  8 10  1  0  0  0  0
  8 33  1  0  0  0  0
  9 21  1  0  0  0  0
  9 34  1  0  0  0  0
 10 11  2  0  0  0  0
 11 12  1  0  0  0  0
 11 35  1  0  0  0  0
 12 13  2  0  0  0  0
 12 16  1  0  0  0  0
 13 14  1  0  0  0  0
 13 36  1  0  0  0  0
 14 15  2  0  0  0  0
 14 37  1  0  0  0  0
 15 10  1  0  0  0  0
 15 38  1  0  0  0  0
 16 17  1  0  0  0  0
 16 39  1  0  0  0  0
 17 18  1  0  0  0  0
 17 19  2  0  0  0  0
 18 20  2  0  0  0  0
 18 40  1  0  0  0  0
 20 41  1  0  0  0  0
 20 42  1  0  0  0  0
 21 22  2  0  0  0  0
 22 23  1  0  0  0  0
 22 43  1  0  0  0  0
 23 24  2  0  0  0  0
 23 44  1  0  0  0  0
 24 25  1  0  0  0  0
 24 27  1  0  0  0  0
 25 26  2  0  0  0  0
 25 45  1  0  0  0  0
 26 21  1  0  0  0  0
 26 46  1  0  0  0  0
 27 28  1  0  0  0  0
 28 29  1  0  0  0  0
 28 47  1  0  0  0  0
 28 48  1  0  0  0  0
 29 30  1  0  0  0  0
 29 49  1  0  0  0  0
 29 50  1  0  0  0  0
 30 31  1  0  0  0  0
 31 51  1  0  0  0  0
 31 52  1  0  0  0  0
 31 53  1  0  0  0  0
M  END
>  <Mol_ID>
2328

>  <Formula>
C22H22FN5O3

>  <MolWeight>
423.4401832

>  <Cat>
S7173

>  <Name>
Spebrutinib (CC-292)

>  <Synonyms>
AVL-292

>  <Target>
BTK

>  <Form>
free base

>  <CAS>
1202757-89-8

>  <URL>
http://selleckchem.com/products/avl-292.html

$$$$
