Avotaciclib trihydrochloride
 OpenBabel08302521353D

 32 34  0  0  0  0  0  0  0  0999 V2000
   -2.3154   -0.0169   -0.0069 O   0  0  0  0  0  0  0  0  0  0  0  0
   -3.7853    3.9058    1.4382 N   0  0  0  0  0  0  0  0  0  0  0  0
    5.8395   -2.5489   -0.3797 N   0  0  0  0  0  0  0  0  0  0  0  0
   -0.1942    1.1439    0.0546 C   0  0  0  0  0  0  0  0  0  0  0  0
    1.1766    1.1123    0.0021 N   0  0  0  0  0  0  0  0  0  0  0  0
   -0.9498   -0.0366    0.0210 C   0  0  0  0  0  0  0  0  0  0  0  0
    1.8091   -0.0952   -0.0548 C   0  0  0  0  0  0  0  0  0  0  0  0
   -0.2991   -1.2624   -0.0325 C   0  0  0  0  0  0  0  0  0  0  0  0
    1.0903   -1.2911   -0.0672 C   0  0  0  0  0  0  0  0  0  0  0  0
   -0.8000    2.4960    0.1243 C   0  0  0  0  0  0  0  0  0  0  0  0
   -1.9738    2.6172    0.7896 N   0  0  0  0  0  0  0  0  0  0  0  0
   -0.1997    3.5925   -0.4659 C   0  0  0  0  0  0  0  0  0  0  0  0
   -2.5683    3.8090    0.7967 C   0  0  0  0  0  0  0  0  0  0  0  0
   -0.8779    4.7834   -0.3680 C   0  0  0  0  0  0  0  0  0  0  0  0
   -2.0592    4.9173    0.2583 N   0  0  0  0  0  0  0  0  0  0  0  0
    3.2916   -0.0832   -0.1079 C   0  0  0  0  0  0  0  0  0  0  0  0
    3.8977   -1.2922   -0.2245 N   0  0  0  0  0  0  0  0  0  0  0  0
    4.0281    1.0839   -0.0444 C   0  0  0  0  0  0  0  0  0  0  0  0
    5.2308   -1.3178   -0.2527 C   0  0  0  0  0  0  0  0  0  0  0  0
    5.3934    0.9444   -0.1030 C   0  0  0  0  0  0  0  0  0  0  0  0
    6.0151   -0.2419   -0.2143 N   0  0  0  0  0  0  0  0  0  0  0  0
   -2.6642   -0.9191    0.0627 H   0  0  0  0  0  0  0  0  0  0  0  0
   -3.9364    4.8532    1.7506 H   0  0  0  0  0  0  0  0  0  0  0  0
   -3.8655    3.1634    2.1182 H   0  0  0  0  0  0  0  0  0  0  0  0
    6.7577   -2.4319   -0.7850 H   0  0  0  0  0  0  0  0  0  0  0  0
    5.2133   -3.1999   -0.8305 H   0  0  0  0  0  0  0  0  0  0  0  0
   -0.8494   -2.1970   -0.0607 H   0  0  0  0  0  0  0  0  0  0  0  0
    1.6053   -2.2466   -0.1137 H   0  0  0  0  0  0  0  0  0  0  0  0
    0.7424    3.5202   -0.9923 H   0  0  0  0  0  0  0  0  0  0  0  0
   -0.4850    5.6921   -0.8139 H   0  0  0  0  0  0  0  0  0  0  0  0
    3.5647    2.0569    0.0491 H   0  0  0  0  0  0  0  0  0  0  0  0
    6.0493    1.8088   -0.0593 H   0  0  0  0  0  0  0  0  0  0  0  0
  1  6  1  0  0  0  0
  1 22  1  0  0  0  0
  2 13  1  0  0  0  0
  2 23  1  0  0  0  0
  2 24  1  0  0  0  0
  3 19  1  0  0  0  0
  3 25  1  0  0  0  0
  3 26  1  0  0  0  0
  4  5  2  0  0  0  0
  4  6  1  0  0  0  0
  4 10  1  0  0  0  0
  5  7  1  0  0  0  0
  6  8  2  0  0  0  0
  7  9  2  0  0  0  0
  7 16  1  0  0  0  0
  8  9  1  0  0  0  0
  8 27  1  0  0  0  0
  9 28  1  0  0  0  0
 10 11  2  0  0  0  0
 10 12  1  0  0  0  0
 11 13  1  0  0  0  0
 12 14  2  0  0  0  0
 12 29  1  0  0  0  0
 13 15  2  0  0  0  0
 14 15  1  0  0  0  0
 14 30  1  0  0  0  0
 16 17  2  0  0  0  0
 16 18  1  0  0  0  0
 17 19  1  0  0  0  0
 18 20  2  0  0  0  0
 18 31  1  0  0  0  0
 19 21  2  0  0  0  0
 20 21  1  0  0  0  0
 20 32  1  0  0  0  0
M  END
>  <Mol_ID>
6955

>  <Formula>
C13H12ClN7O

>  <MolWeight>
317.73368

>  <Cat>
E1605

>  <Name>
Avotaciclib trihydrochloride

>  <Synonyms>
BEY1107 trihydrochloride

>  <Target>
CDK

>  <Form>
Trihydrochloride

>  <CAS>
1983984-01-5

>  <URL>
https://www.selleckchem.com/products/avotaciclib-trihydrochloride.html

$$$$
