AX-024 HCl
 OpenBabel08302521233D

 47 50  0  0  0  0  0  0  0  0999 V2000
    2.4135   -0.1641   -0.0821 F   0  0  0  0  0  0  0  0  0  0  0  0
   -6.0513    0.9014    0.7747 O   0  0  0  0  0  0  0  0  0  0  0  0
   -3.8510   -3.0574    3.8824 O   0  0  0  0  0  0  0  0  0  0  0  0
   -3.2326    2.6971   -2.0720 N   0  0  0  0  0  0  0  0  0  0  0  0
   -4.2179    3.7608   -1.8360 C   0  0  0  0  0  0  0  0  0  0  0  0
   -2.5503    3.0756   -3.3213 C   0  0  0  0  0  0  0  0  0  0  0  0
   -4.7080    4.1493   -3.2178 C   0  0  0  0  0  0  0  0  0  0  0  0
   -3.4716    4.0174   -4.0853 C   0  0  0  0  0  0  0  0  0  0  0  0
   -3.8126    1.3473   -2.1351 C   0  0  0  0  0  0  0  0  0  0  0  0
   -4.1368    0.7534   -0.7689 C   0  0  0  0  0  0  0  0  0  0  0  0
   -3.3193    0.1772    0.1764 C   0  0  0  0  0  0  0  0  0  0  0  0
   -5.6456    0.7653   -0.5809 C   0  0  0  0  0  0  0  0  0  0  0  0
   -4.1479   -0.4978    1.2795 C   0  0  0  0  0  0  0  0  0  0  0  0
   -5.4631   -0.0741    1.5272 C   0  0  0  0  0  0  0  0  0  0  0  0
   -1.7779    0.1612    0.1208 C   0  0  0  0  0  0  0  0  0  0  0  0
   -3.7119   -1.5700    2.0773 C   0  0  0  0  0  0  0  0  0  0  0  0
   -6.2713   -0.6259    2.5271 C   0  0  0  0  0  0  0  0  0  0  0  0
   -1.0171    0.5802   -0.9881 C   0  0  0  0  0  0  0  0  0  0  0  0
   -0.9903   -0.2751    1.2060 C   0  0  0  0  0  0  0  0  0  0  0  0
   -4.4852   -2.1039    3.1306 C   0  0  0  0  0  0  0  0  0  0  0  0
   -5.7790   -1.6416    3.3371 C   0  0  0  0  0  0  0  0  0  0  0  0
    0.3822    0.4948   -1.0598 C   0  0  0  0  0  0  0  0  0  0  0  0
    0.4081   -0.4234    1.1340 C   0  0  0  0  0  0  0  0  0  0  0  0
    1.0821   -0.0390   -0.0023 C   0  0  0  0  0  0  0  0  0  0  0  0
   -4.5616   -3.5927    4.9947 C   0  0  0  0  0  0  0  0  0  0  0  0
   -3.7041    4.6145   -1.3750 H   0  0  0  0  0  0  0  0  0  0  0  0
   -5.0313    3.4917   -1.1616 H   0  0  0  0  0  0  0  0  0  0  0  0
   -2.2475    2.2203   -3.9366 H   0  0  0  0  0  0  0  0  0  0  0  0
   -1.6270    3.6071   -3.0600 H   0  0  0  0  0  0  0  0  0  0  0  0
   -5.4835    3.4573   -3.5666 H   0  0  0  0  0  0  0  0  0  0  0  0
   -5.1216    5.1620   -3.2434 H   0  0  0  0  0  0  0  0  0  0  0  0
   -3.7206    3.6325   -5.0792 H   0  0  0  0  0  0  0  0  0  0  0  0
   -2.9884    4.9931   -4.2119 H   0  0  0  0  0  0  0  0  0  0  0  0
   -3.1586    0.6360   -2.6501 H   0  0  0  0  0  0  0  0  0  0  0  0
   -4.6997    1.3426   -2.7846 H   0  0  0  0  0  0  0  0  0  0  0  0
   -6.0993    1.6187   -1.0949 H   0  0  0  0  0  0  0  0  0  0  0  0
   -6.0967   -0.1311   -1.0263 H   0  0  0  0  0  0  0  0  0  0  0  0
   -2.7515   -2.0444    1.9018 H   0  0  0  0  0  0  0  0  0  0  0  0
   -7.2909   -0.2718    2.6554 H   0  0  0  0  0  0  0  0  0  0  0  0
   -1.4549    1.0432   -1.8501 H   0  0  0  0  0  0  0  0  0  0  0  0
   -1.4338   -0.5101    2.1663 H   0  0  0  0  0  0  0  0  0  0  0  0
   -6.4307   -2.0535    4.0991 H   0  0  0  0  0  0  0  0  0  0  0  0
    0.9064    0.8522   -1.9413 H   0  0  0  0  0  0  0  0  0  0  0  0
    0.9663   -0.8225    1.9749 H   0  0  0  0  0  0  0  0  0  0  0  0
   -4.9916   -2.8145    5.6349 H   0  0  0  0  0  0  0  0  0  0  0  0
   -5.3330   -4.2873    4.6479 H   0  0  0  0  0  0  0  0  0  0  0  0
   -3.8505   -4.1548    5.6084 H   0  0  0  0  0  0  0  0  0  0  0  0
  1 24  1  0  0  0  0
  2 12  1  0  0  0  0
  2 14  1  0  0  0  0
  3 20  1  0  0  0  0
  3 25  1  0  0  0  0
  4  5  1  0  0  0  0
  4  6  1  0  0  0  0
  4  9  1  0  0  0  0
  5  7  1  0  0  0  0
  5 26  1  0  0  0  0
  5 27  1  0  0  0  0
  6  8  1  0  0  0  0
  6 28  1  0  0  0  0
  6 29  1  0  0  0  0
  7  8  1  0  0  0  0
  7 30  1  0  0  0  0
  7 31  1  0  0  0  0
  8 32  1  0  0  0  0
  8 33  1  0  0  0  0
  9 10  1  0  0  0  0
  9 34  1  0  0  0  0
  9 35  1  0  0  0  0
 10 11  2  0  0  0  0
 10 12  1  0  0  0  0
 11 13  1  0  0  0  0
 11 15  1  0  0  0  0
 12 36  1  0  0  0  0
 12 37  1  0  0  0  0
 13 14  2  0  0  0  0
 13 16  1  0  0  0  0
 14 17  1  0  0  0  0
 15 18  2  0  0  0  0
 15 19  1  0  0  0  0
 16 20  2  0  0  0  0
 16 38  1  0  0  0  0
 17 21  2  0  0  0  0
 17 39  1  0  0  0  0
 18 22  1  0  0  0  0
 18 40  1  0  0  0  0
 19 23  2  0  0  0  0
 19 41  1  0  0  0  0
 20 21  1  0  0  0  0
 21 42  1  0  0  0  0
 22 24  2  0  0  0  0
 22 43  1  0  0  0  0
 23 24  1  0  0  0  0
 23 44  1  0  0  0  0
 25 45  1  0  0  0  0
 25 46  1  0  0  0  0
 25 47  1  0  0  0  0
M  END
>  <Mol_ID>
4775

>  <Formula>
C21H23ClFNO2

>  <MolWeight>
375.8642232

>  <Cat>
S6727

>  <Name>
AX-024 HCl

>  <Synonyms>
N/A

>  <Target>
CD markers,IFN,Interleukins,TNF-alpha

>  <Form>
Hydrochloride

>  <CAS>
1704801-24-0

>  <URL>
http://www.selleck.cn/products/ax-024-hcl.html

$$$$
