AZ10606120 dihydrochloride
 OpenBabel08302521353D

 65 69  0  0  0  0  0  0  0  0999 V2000
    1.1508   -0.1662   -0.1752 O   0  0  0  0  0  0  0  0  0  0  0  0
    9.9587   -1.2130  -10.1546 O   0  0  0  0  0  0  0  0  0  0  0  0
    3.1584   -1.0851   -0.4870 N   0  0  0  0  0  0  0  0  0  0  0  0
    7.3367   -1.6729   -2.9216 N   0  0  0  0  0  0  0  0  0  0  0  0
    7.3770   -2.1521   -5.2377 N   0  0  0  0  0  0  0  0  0  0  0  0
    8.8859   -2.4717   -7.7133 N   0  0  0  0  0  0  0  0  0  0  0  0
    2.6581    2.4973   -0.7001 C   0  0  3  0  0  0  0  0  0  0  0  0
    3.0078    1.3185    0.2297 C   0  0  0  0  0  0  0  0  0  0  0  0
    2.3708   -0.0164   -0.1392 C   0  0  0  0  0  0  0  0  0  0  0  0
    4.5615   -1.1519   -0.5391 C   0  0  0  0  0  0  0  0  0  0  0  0
    5.2297   -1.4308   -1.7525 C   0  0  0  0  0  0  0  0  0  0  0  0
    5.2994   -0.9678    0.6346 C   0  0  0  0  0  0  0  0  0  0  0  0
    6.6434   -1.4392   -1.8029 C   0  0  0  0  0  0  0  0  0  0  0  0
    6.6876   -0.9544    0.5825 C   0  0  0  0  0  0  0  0  0  0  0  0
    4.5628   -1.6479   -2.9661 C   0  0  0  0  0  0  0  0  0  0  0  0
    7.3401   -1.1740   -0.6282 C   0  0  0  0  0  0  0  0  0  0  0  0
    5.2841   -1.8625   -4.1349 C   0  0  0  0  0  0  0  0  0  0  0  0
    6.6932   -1.8687   -4.0793 C   0  0  0  0  0  0  0  0  0  0  0  0
    8.7594   -2.6655   -5.2181 C   0  0  0  0  0  0  0  0  0  0  0  0
    8.9956   -3.3997   -6.5625 C   0  0  0  0  0  0  0  0  0  0  0  0
    9.1059   -3.1800   -8.9849 C   0  0  0  0  0  0  0  0  0  0  0  0
    8.9990   -2.2649  -10.2062 C   0  0  0  0  0  0  0  0  0  0  0  0
    1.1420    2.7965   -0.7604 C   0  0  0  0  0  0  0  0  0  0  0  0
    3.1795    2.2437   -2.1390 C   0  0  0  0  0  0  0  0  0  0  0  0
    2.9075    3.4642   -3.0345 C   0  0  3  0  0  0  0  0  0  0  0  0
    0.8694    4.0179   -1.6556 C   0  0  3  0  0  0  0  0  0  0  0  0
    1.3939    3.7295   -3.0728 C   0  0  0  0  0  0  0  0  0  0  0  0
    3.6272    4.6916   -2.4518 C   0  0  0  0  0  0  0  0  0  0  0  0
    1.5973    5.2425   -1.0814 C   0  0  0  0  0  0  0  0  0  0  0  0
    3.1096    4.9816   -1.0347 C   0  0  3  0  0  0  0  0  0  0  0  0
    3.3767    3.7604   -0.1449 C   0  0  0  0  0  0  0  0  0  0  0  0
    9.7616   -0.7062   -9.3452 H   0  0  0  0  0  0  0  0  0  0  0  0
    2.6261   -1.8206   -0.9382 H   0  0  0  0  0  0  0  0  0  0  0  0
    7.1178   -1.5773   -6.0261 H   0  0  0  0  0  0  0  0  0  0  0  0
    7.9642   -2.0506   -7.7098 H   0  0  0  0  0  0  0  0  0  0  0  0
    2.7231    1.5371    1.2669 H   0  0  0  0  0  0  0  0  0  0  0  0
    4.0955    1.2461    0.2203 H   0  0  0  0  0  0  0  0  0  0  0  0
    4.8017   -0.8515    1.5930 H   0  0  0  0  0  0  0  0  0  0  0  0
    7.2619   -0.7608    1.4868 H   0  0  0  0  0  0  0  0  0  0  0  0
    3.4807   -1.6340   -3.0329 H   0  0  0  0  0  0  0  0  0  0  0  0
    8.4283   -1.1424   -0.6620 H   0  0  0  0  0  0  0  0  0  0  0  0
    4.7451   -2.0254   -5.0524 H   0  0  0  0  0  0  0  0  0  0  0  0
    9.5132   -1.8834   -5.0764 H   0  0  0  0  0  0  0  0  0  0  0  0
    8.8959   -3.4081   -4.4233 H   0  0  0  0  0  0  0  0  0  0  0  0
    9.9908   -3.8610   -6.5471 H   0  0  0  0  0  0  0  0  0  0  0  0
    8.2544   -4.2089   -6.6455 H   0  0  0  0  0  0  0  0  0  0  0  0
   10.1244   -3.6011   -8.9525 H   0  0  0  0  0  0  0  0  0  0  0  0
    8.4020   -4.0164   -9.0828 H   0  0  0  0  0  0  0  0  0  0  0  0
    9.1876   -2.8408  -11.1193 H   0  0  0  0  0  0  0  0  0  0  0  0
    8.0038   -1.8170  -10.3002 H   0  0  0  0  0  0  0  0  0  0  0  0
    0.5900    1.9425   -1.1663 H   0  0  0  0  0  0  0  0  0  0  0  0
    0.7528    2.9771    0.2494 H   0  0  0  0  0  0  0  0  0  0  0  0
    4.2575    2.0364   -2.1214 H   0  0  0  0  0  0  0  0  0  0  0  0
    2.6967    1.3601   -2.5750 H   0  0  0  0  0  0  0  0  0  0  0  0
    3.2762    3.2676   -4.0476 H   0  0  0  0  0  0  0  0  0  0  0  0
   -0.2083    4.2113   -1.6921 H   0  0  0  0  0  0  0  0  0  0  0  0
    1.1791    4.5798   -3.7313 H   0  0  0  0  0  0  0  0  0  0  0  0
    0.8743    2.8599   -3.4941 H   0  0  0  0  0  0  0  0  0  0  0  0
    4.7095    4.5135   -2.4259 H   0  0  0  0  0  0  0  0  0  0  0  0
    3.4637    5.5640   -3.0960 H   0  0  0  0  0  0  0  0  0  0  0  0
    1.3886    6.1256   -1.6973 H   0  0  0  0  0  0  0  0  0  0  0  0
    1.2242    5.4606   -0.0730 H   0  0  0  0  0  0  0  0  0  0  0  0
    3.6253    5.8568   -0.6236 H   0  0  0  0  0  0  0  0  0  0  0  0
    3.0356    3.9672    0.8780 H   0  0  0  0  0  0  0  0  0  0  0  0
    4.4589    3.5852   -0.0833 H   0  0  0  0  0  0  0  0  0  0  0  0
  1  9  2  0  0  0  0
  2 22  1  0  0  0  0
  2 32  1  0  0  0  0
  3  9  1  0  0  0  0
  3 10  1  0  0  0  0
  3 33  1  0  0  0  0
  4 13  2  0  0  0  0
  4 18  1  0  0  0  0
  5 18  1  0  0  0  0
  5 19  1  0  0  0  0
  5 34  1  0  0  0  0
  6 20  1  0  0  0  0
  6 21  1  0  0  0  0
  6 35  1  0  0  0  0
  7  8  1  0  0  0  0
  7 23  1  0  0  0  0
  7 24  1  0  0  0  0
  7 31  1  0  0  0  0
  8  9  1  0  0  0  0
  8 36  1  0  0  0  0
  8 37  1  0  0  0  0
 10 11  1  0  0  0  0
 10 12  2  0  0  0  0
 11 13  1  0  0  0  0
 11 15  2  0  0  0  0
 12 14  1  0  0  0  0
 12 38  1  0  0  0  0
 13 16  1  0  0  0  0
 14 16  2  0  0  0  0
 14 39  1  0  0  0  0
 15 17  1  0  0  0  0
 15 40  1  0  0  0  0
 16 41  1  0  0  0  0
 17 18  2  0  0  0  0
 17 42  1  0  0  0  0
 19 20  1  0  0  0  0
 19 43  1  0  0  0  0
 19 44  1  0  0  0  0
 20 45  1  0  0  0  0
 20 46  1  0  0  0  0
 21 22  1  0  0  0  0
 21 47  1  0  0  0  0
 21 48  1  0  0  0  0
 22 49  1  0  0  0  0
 22 50  1  0  0  0  0
 23 26  1  0  0  0  0
 23 51  1  0  0  0  0
 23 52  1  0  0  0  0
 24 25  1  0  0  0  0
 24 53  1  0  0  0  0
 24 54  1  0  0  0  0
 25 28  1  0  0  0  0
 25 55  1  0  0  0  0
 26 27  1  0  0  0  0
 26 29  1  0  0  0  0
 26 56  1  0  0  0  0
 27 25  1  0  0  0  0
 27 57  1  0  0  0  0
 27 58  1  0  0  0  0
 28 30  1  0  0  0  0
 28 59  1  0  0  0  0
 28 60  1  0  0  0  0
 29 61  1  0  0  0  0
 29 62  1  0  0  0  0
 30 29  1  0  0  0  0
 30 31  1  0  0  0  0
 30 63  1  0  0  0  0
 31 64  1  0  0  0  0
 31 65  1  0  0  0  0
M  END
>  <Mol_ID>
6674

>  <Formula>
C25H36Cl2N4O2

>  <MolWeight>
495.48494

>  <Cat>
S3520

>  <Name>
AZ10606120 dihydrochloride

>  <Synonyms>
AZ10606120 2HCl

>  <Target>
P2 Receptor

>  <Form>
Dihydrochloride

>  <CAS>
607378-18-7

>  <URL>
http://www.selleckchem.com/products/az10606120-dihydrochloride.html

$$$$
