AZ5104.cdx
 OpenBabel08302519553D

 67 70  0  0  0  0  0  0  0  0999 V2000
   -1.0773    1.0813    3.9564 C   0  0  0  0  0  0  0  0  0  0  0  0
    0.0391    1.8568    3.8570 C   0  0  0  0  0  0  0  0  0  0  0  0
    0.4977    2.3192    2.6867 N   0  0  0  0  0  0  0  0  0  0  0  0
   -0.1663    2.0035    1.5661 C   0  0  0  0  0  0  0  0  0  0  0  0
   -1.2784    1.2614    1.5635 N   0  0  0  0  0  0  0  0  0  0  0  0
   -1.7274    0.8287    2.7659 C   0  0  0  0  0  0  0  0  0  0  0  0
   -3.0132    0.1475    2.7577 C   0  0  0  0  0  0  0  0  0  0  0  0
   -3.3577   -0.8729    3.6288 C   0  0  0  0  0  0  0  0  0  0  0  0
   -4.6593   -1.2275    3.3671 N   0  0  0  0  0  0  0  0  0  0  0  0
   -5.1799   -0.4428    2.3659 C   0  0  0  0  0  0  0  0  0  0  0  0
   -4.1667    0.4255    1.9518 C   0  0  0  0  0  0  0  0  0  0  0  0
   -6.4682   -0.4128    1.8124 C   0  0  0  0  0  0  0  0  0  0  0  0
   -6.7176    0.5154    0.7985 C   0  0  0  0  0  0  0  0  0  0  0  0
   -5.7231    1.3867    0.3599 C   0  0  0  0  0  0  0  0  0  0  0  0
   -4.4489    1.3555    0.9293 C   0  0  0  0  0  0  0  0  0  0  0  0
    0.3305    2.4211    0.3303 N   0  0  0  0  0  0  0  0  0  0  0  0
    1.3857    3.3068    0.0618 C   0  0  0  0  0  0  0  0  0  0  0  0
    2.2542    3.1949   -1.0330 C   0  0  0  0  0  0  0  0  0  0  0  0
    3.3991    4.0326   -1.1231 C   0  0  0  0  0  0  0  0  0  0  0  0
    3.6969    5.0521   -0.1945 C   0  0  0  0  0  0  0  0  0  0  0  0
    2.7607    5.1953    0.8502 C   0  0  0  0  0  0  0  0  0  0  0  0
    1.6734    4.3248    0.9875 C   0  0  0  0  0  0  0  0  0  0  0  0
    2.7722    6.3454    1.6647 N   0  0  0  0  0  0  0  0  0  0  0  0
    2.7737    6.3087    3.0464 C   0  0  0  0  0  0  0  0  0  0  0  0
    2.8465    7.6856    3.6189 C   0  0  0  0  0  0  0  0  0  0  0  0
    2.7928    5.3174    3.7527 O   0  0  0  0  0  0  0  0  0  0  0  0
    3.0705    7.8869    4.9238 C   0  0  0  0  0  0  0  0  0  0  0  0
    4.8511    5.8533   -0.2781 N   0  0  0  0  0  0  0  0  0  0  0  0
    5.6657    5.9215   -1.5049 C   0  0  0  0  0  0  0  0  0  0  0  0
    5.5711    6.1527    0.9681 C   0  0  0  0  0  0  0  0  0  0  0  0
    5.0199    6.7932   -2.6102 C   0  0  0  0  0  0  0  0  0  0  0  0
    4.6045    8.1624   -2.2319 N   0  0  0  0  0  0  0  0  0  0  0  0
    5.7182    8.9838   -1.7613 C   0  0  0  0  0  0  0  0  0  0  0  0
    3.9318    8.8257   -3.3518 C   0  0  0  0  0  0  0  0  0  0  0  0
    2.1962    2.2525   -2.0333 O   0  0  0  0  0  0  0  0  0  0  0  0
    0.9252    1.9864   -2.6146 C   0  0  0  0  0  0  0  0  0  0  0  0
   -1.4327    0.7327    4.9149 H   0  0  0  0  0  0  0  0  0  0  0  0
    0.6167    2.1589    4.7231 H   0  0  0  0  0  0  0  0  0  0  0  0
   -2.7994   -1.3799    4.4008 H   0  0  0  0  0  0  0  0  0  0  0  0
   -5.1816   -1.9321    3.8725 H   0  0  0  0  0  0  0  0  0  0  0  0
   -7.2493   -1.0825    2.1632 H   0  0  0  0  0  0  0  0  0  0  0  0
   -7.7056    0.5576    0.3485 H   0  0  0  0  0  0  0  0  0  0  0  0
   -5.9400    2.1028   -0.4286 H   0  0  0  0  0  0  0  0  0  0  0  0
   -3.6798    2.0445    0.5917 H   0  0  0  0  0  0  0  0  0  0  0  0
   -0.0936    1.8931   -0.4076 H   0  0  0  0  0  0  0  0  0  0  0  0
    4.0721    3.8331   -1.9509 H   0  0  0  0  0  0  0  0  0  0  0  0
    0.9907    4.5002    1.8161 H   0  0  0  0  0  0  0  0  0  0  0  0
    3.0932    7.1780    1.1883 H   0  0  0  0  0  0  0  0  0  0  0  0
    2.6980    8.5250    2.9505 H   0  0  0  0  0  0  0  0  0  0  0  0
    3.1068    8.8910    5.3319 H   0  0  0  0  0  0  0  0  0  0  0  0
    3.2205    7.0579    5.6103 H   0  0  0  0  0  0  0  0  0  0  0  0
    6.6514    6.3507   -1.2836 H   0  0  0  0  0  0  0  0  0  0  0  0
    5.8936    4.9211   -1.8906 H   0  0  0  0  0  0  0  0  0  0  0  0
    5.1137    6.9919    1.4972 H   0  0  0  0  0  0  0  0  0  0  0  0
    5.6343    5.2828    1.6306 H   0  0  0  0  0  0  0  0  0  0  0  0
    6.5979    6.4856    0.7793 H   0  0  0  0  0  0  0  0  0  0  0  0
    5.7195    6.8411   -3.4549 H   0  0  0  0  0  0  0  0  0  0  0  0
    4.1326    6.2542   -2.9646 H   0  0  0  0  0  0  0  0  0  0  0  0
    6.4825    9.1176   -2.5361 H   0  0  0  0  0  0  0  0  0  0  0  0
    5.3606    9.9751   -1.4596 H   0  0  0  0  0  0  0  0  0  0  0  0
    6.1992    8.5528   -0.8786 H   0  0  0  0  0  0  0  0  0  0  0  0
    4.6187    9.4294   -3.9567 H   0  0  0  0  0  0  0  0  0  0  0  0
    3.4464    8.1129   -4.0282 H   0  0  0  0  0  0  0  0  0  0  0  0
    3.1451    9.4830   -2.9673 H   0  0  0  0  0  0  0  0  0  0  0  0
    0.4851    1.0996   -2.1492 H   0  0  0  0  0  0  0  0  0  0  0  0
    0.2392    2.8390   -2.5718 H   0  0  0  0  0  0  0  0  0  0  0  0
    1.0808    1.7376   -3.6703 H   0  0  0  0  0  0  0  0  0  0  0  0
  1  2  2  0  0  0  0
  1 37  1  0  0  0  0
  2  3  1  0  0  0  0
  2 38  1  0  0  0  0
  3  4  2  0  0  0  0
  4  5  1  0  0  0  0
  4 16  1  0  0  0  0
  5  6  2  0  0  0  0
  6  1  1  0  0  0  0
  6  7  1  0  0  0  0
  7  8  2  0  0  0  0
  8  9  1  0  0  0  0
  8 39  1  0  0  0  0
  9 10  1  0  0  0  0
  9 40  1  0  0  0  0
 10 11  2  0  0  0  0
 10 12  1  0  0  0  0
 11  7  1  0  0  0  0
 12 13  2  0  0  0  0
 12 41  1  0  0  0  0
 13 14  1  0  0  0  0
 13 42  1  0  0  0  0
 14 15  2  0  0  0  0
 14 43  1  0  0  0  0
 15 11  1  0  0  0  0
 15 44  1  0  0  0  0
 16 17  1  0  0  0  0
 16 45  1  0  0  0  0
 17 18  2  0  0  0  0
 18 19  1  0  0  0  0
 18 35  1  0  0  0  0
 19 20  2  0  0  0  0
 19 46  1  0  0  0  0
 20 21  1  0  0  0  0
 20 28  1  0  0  0  0
 21 22  2  0  0  0  0
 21 23  1  0  0  0  0
 22 17  1  0  0  0  0
 22 47  1  0  0  0  0
 23 24  1  0  0  0  0
 23 48  1  0  0  0  0
 24 25  1  0  0  0  0
 24 26  2  0  0  0  0
 25 27  2  0  0  0  0
 25 49  1  0  0  0  0
 27 50  1  0  0  0  0
 27 51  1  0  0  0  0
 28 29  1  0  0  0  0
 28 30  1  0  0  0  0
 29 31  1  0  0  0  0
 29 52  1  0  0  0  0
 29 53  1  0  0  0  0
 30 54  1  0  0  0  0
 30 55  1  0  0  0  0
 30 56  1  0  0  0  0
 31 32  1  0  0  0  0
 31 57  1  0  0  0  0
 31 58  1  0  0  0  0
 32 33  1  0  0  0  0
 32 34  1  0  0  0  0
 33 59  1  0  0  0  0
 33 60  1  0  0  0  0
 33 61  1  0  0  0  0
 34 62  1  0  0  0  0
 34 63  1  0  0  0  0
 34 64  1  0  0  0  0
 35 36  1  0  0  0  0
 36 65  1  0  0  0  0
 36 66  1  0  0  0  0
 36 67  1  0  0  0  0
M  END
>  <Mol_ID>
2165

>  <Formula>
C27H31N7O2

>  <MolWeight>
485.58074

>  <Cat>
S7298

>  <Name>
AZ5104

>  <Synonyms>
N/A

>  <Target>
EGFR

>  <Form>
free base

>  <CAS>
1421373-98-9

>  <URL>
http://selleckchem.com/products/az5104.html

$$$$
