Azaindole 1 (TC-S 7001)
 OpenBabel08302521223D

 41 44  0  0  0  0  0  0  0  0999 V2000
   -1.0554   -3.3687   -1.8825 C   0  0  0  0  0  0  0  0  0  0  0  0
   -0.1708   -2.6113   -1.2246 N   0  0  0  0  0  0  0  0  0  0  0  0
    0.9087   -3.2316   -0.7158 C   0  0  0  0  0  0  0  0  0  0  0  0
    1.0993   -4.5906   -0.8497 C   0  0  0  0  0  0  0  0  0  0  0  0
    0.1396   -5.2723   -1.5517 C   0  0  0  0  0  0  0  0  0  0  0  0
   -0.9354   -4.6814   -2.0889 N   0  0  0  0  0  0  0  0  0  0  0  0
   -2.1545   -2.7466   -2.4379 N   0  0  0  0  0  0  0  0  0  0  0  0
    1.8091   -2.4371    0.0073 N   0  0  0  0  0  0  0  0  0  0  0  0
    3.2121   -2.4991    0.0774 C   0  0  0  0  0  0  0  0  0  0  0  0
    4.0036   -3.1166   -0.8971 C   0  0  0  0  0  0  0  0  0  0  0  0
    5.3950   -3.1328   -0.7760 C   0  0  0  0  0  0  0  0  0  0  0  0
    6.0360   -2.5358    0.3059 C   0  0  0  0  0  0  0  0  0  0  0  0
    5.2423   -1.9754    1.3045 C   0  0  0  0  0  0  0  0  0  0  0  0
    3.8531   -1.9239    1.1795 C   0  0  0  0  0  0  0  0  0  0  0  0
    7.4079   -2.6011    0.3344 O   0  0  0  0  0  0  0  0  0  0  0  0
   10.1237   -0.6282    1.7748 C   0  0  0  0  0  0  0  0  0  0  0  0
    9.4283   -1.7501    1.3303 C   0  0  0  0  0  0  0  0  0  0  0  0
    8.1418   -1.5247    0.7900 C   0  0  0  0  0  0  0  0  0  0  0  0
    7.7149   -0.1940    0.6813 C   0  0  0  0  0  0  0  0  0  0  0  0
    8.5098    0.8190    1.1953 C   0  0  0  0  0  0  0  0  0  0  0  0
    9.7243    0.6556    1.7561 N   0  0  0  0  0  0  0  0  0  0  0  0
   11.3341   -1.0352    2.2561 N   0  0  0  0  0  0  0  0  0  0  0  0
   10.2824   -2.8819    1.5703 C   0  0  0  0  0  0  0  0  0  0  0  0
   11.4498   -2.3928    2.1345 C   0  0  0  0  0  0  0  0  0  0  0  0
   10.0153   -4.3154    1.2803 C   0  0  0  0  0  0  0  0  0  0  0  0
    5.7892   -1.4574    2.4137 F   0  0  0  0  0  0  0  0  0  0  0  0
    6.1126   -3.7329   -1.7374 F   0  0  0  0  0  0  0  0  0  0  0  0
    1.9380   -5.1059   -0.4011 H   0  0  0  0  0  0  0  0  0  0  0  0
    0.2093   -6.3445   -1.7032 H   0  0  0  0  0  0  0  0  0  0  0  0
   -2.5122   -3.3153   -3.1934 H   0  0  0  0  0  0  0  0  0  0  0  0
   -1.9423   -1.7815   -2.6448 H   0  0  0  0  0  0  0  0  0  0  0  0
    1.4448   -1.4876    0.0419 H   0  0  0  0  0  0  0  0  0  0  0  0
    3.5645   -3.5697   -1.7808 H   0  0  0  0  0  0  0  0  0  0  0  0
    3.2773   -1.4508    1.9708 H   0  0  0  0  0  0  0  0  0  0  0  0
    6.7674    0.0685    0.2266 H   0  0  0  0  0  0  0  0  0  0  0  0
    8.1619    1.8489    1.1663 H   0  0  0  0  0  0  0  0  0  0  0  0
   12.0236   -0.4026    2.6336 H   0  0  0  0  0  0  0  0  0  0  0  0
   12.3493   -2.8990    2.4596 H   0  0  0  0  0  0  0  0  0  0  0  0
   10.7677   -4.7081    0.5880 H   0  0  0  0  0  0  0  0  0  0  0  0
   10.0639   -4.9013    2.2044 H   0  0  0  0  0  0  0  0  0  0  0  0
    9.0323   -4.4766    0.8332 H   0  0  0  0  0  0  0  0  0  0  0  0
  1  2  2  0  0  0  0
  1  6  1  0  0  0  0
  1  7  1  0  0  0  0
  2  3  1  0  0  0  0
  3  4  2  0  0  0  0
  3  8  1  0  0  0  0
  4  5  1  0  0  0  0
  4 28  1  0  0  0  0
  5  6  2  0  0  0  0
  5 29  1  0  0  0  0
  7 30  1  0  0  0  0
  7 31  1  0  0  0  0
  8  9  1  0  0  0  0
  8 32  1  0  0  0  0
  9 10  2  0  0  0  0
  9 14  1  0  0  0  0
 10 11  1  0  0  0  0
 10 33  1  0  0  0  0
 11 12  2  0  0  0  0
 11 27  1  0  0  0  0
 12 13  1  0  0  0  0
 12 15  1  0  0  0  0
 13 14  2  0  0  0  0
 13 26  1  0  0  0  0
 14 34  1  0  0  0  0
 15 18  1  0  0  0  0
 16 17  2  0  0  0  0
 16 21  1  0  0  0  0
 16 22  1  0  0  0  0
 17 18  1  0  0  0  0
 17 23  1  0  0  0  0
 18 19  2  0  0  0  0
 19 20  1  0  0  0  0
 19 35  1  0  0  0  0
 20 21  2  0  0  0  0
 20 36  1  0  0  0  0
 22 24  1  0  0  0  0
 22 37  1  0  0  0  0
 23 24  2  0  0  0  0
 23 25  1  0  0  0  0
 24 38  1  0  0  0  0
 25 39  1  0  0  0  0
 25 40  1  0  0  0  0
 25 41  1  0  0  0  0
M  END
>  <Mol_ID>
4753

>  <Formula>
C18H13ClF2N6O

>  <MolWeight>
402.7852264

>  <Cat>
S6636

>  <Name>
Azaindole 1 (TC-S 7001)

>  <Synonyms>
N/A

>  <Target>
ROCK

>  <Form>
Free Base

>  <CAS>
867017-68-3

>  <URL>
http://www.selleck.cn/products/azaindole-1.html

$$$$
