AZD-7325
 OpenBabel08302521353D

 45 47  0  0  0  0  0  0  0  0999 V2000
    1.4966    0.0998    1.3532 O   0  0  0  0  0  0  0  0  0  0  0  0
    1.3888   -0.7529    2.4974 C   0  0  0  0  0  0  0  0  0  0  0  0
    5.1193    2.0273   -1.1382 F   0  0  0  0  0  0  0  0  0  0  0  0
    1.2213    6.7076   -2.3830 N   0  0  0  0  0  0  0  0  0  0  0  0
    3.1722    6.0458   -4.4962 C   0  0  0  0  0  0  0  0  0  0  0  0
    4.0176    5.5261   -5.4602 N   0  0  0  0  0  0  0  0  0  0  0  0
    2.7555    7.2027   -4.5309 O   0  0  0  0  0  0  0  0  0  0  0  0
    4.4598    6.2927   -6.6068 C   0  0  0  0  0  0  0  0  0  0  0  0
    5.6993    7.1417   -6.3267 C   0  0  0  0  0  0  0  0  0  0  0  0
    6.9309    6.3037   -6.0166 C   0  0  0  0  0  0  0  0  0  0  0  0
    3.1822    1.1610   -0.0232 C   0  0  0  0  0  0  0  0  0  0  0  0
    2.6751    0.0052    0.6428 C   0  0  0  0  0  0  0  0  0  0  0  0
    4.4302    0.9790   -0.6625 C   0  0  0  0  0  0  0  0  0  0  0  0
    3.3273   -1.2423    0.5363 C   0  0  0  0  0  0  0  0  0  0  0  0
    5.0527   -0.2650   -0.7932 C   0  0  0  0  0  0  0  0  0  0  0  0
    4.4937   -1.3839   -0.2045 C   0  0  0  0  0  0  0  0  0  0  0  0
    2.4697    2.4987   -0.0750 C   0  0  0  0  0  0  0  0  0  0  0  0
    2.5279    3.3672   -1.2159 C   0  0  0  0  0  0  0  0  0  0  0  0
    1.7142    2.9313    1.0345 C   0  0  0  0  0  0  0  0  0  0  0  0
    1.8451    4.6164   -1.2067 C   0  0  0  0  0  0  0  0  0  0  0  0
    3.2149    3.0426   -2.3329 N   0  0  0  0  0  0  0  0  0  0  0  0
    0.9769    4.1100    1.0121 C   0  0  0  0  0  0  0  0  0  0  0  0
    2.0054    5.5238   -2.2987 C   0  0  0  0  0  0  0  0  0  0  0  0
    1.0349    4.9352   -0.1006 C   0  0  0  0  0  0  0  0  0  0  0  0
    3.4059    3.9124   -3.3917 N   0  0  0  0  0  0  0  0  0  0  0  0
    2.8187    5.1212   -3.3627 C   0  0  0  0  0  0  0  0  0  0  0  0
    1.1838   -1.7863    2.1997 H   0  0  0  0  0  0  0  0  0  0  0  0
    2.2827   -0.6984    3.1307 H   0  0  0  0  0  0  0  0  0  0  0  0
    0.5366   -0.4157    3.0950 H   0  0  0  0  0  0  0  0  0  0  0  0
    1.0788    7.1961   -1.5095 H   0  0  0  0  0  0  0  0  0  0  0  0
    1.5661    7.3487   -3.1156 H   0  0  0  0  0  0  0  0  0  0  0  0
    4.3776    4.5881   -5.3107 H   0  0  0  0  0  0  0  0  0  0  0  0
    4.6537    5.5844   -7.4189 H   0  0  0  0  0  0  0  0  0  0  0  0
    3.6415    6.9493   -6.9235 H   0  0  0  0  0  0  0  0  0  0  0  0
    5.9107    7.7567   -7.2100 H   0  0  0  0  0  0  0  0  0  0  0  0
    5.5117    7.8298   -5.4945 H   0  0  0  0  0  0  0  0  0  0  0  0
    7.1506    5.6113   -6.8355 H   0  0  0  0  0  0  0  0  0  0  0  0
    7.8025    6.9514   -5.8778 H   0  0  0  0  0  0  0  0  0  0  0  0
    6.7954    5.7222   -5.0999 H   0  0  0  0  0  0  0  0  0  0  0  0
    2.9236   -2.1360    1.0025 H   0  0  0  0  0  0  0  0  0  0  0  0
    5.9765   -0.3382   -1.3587 H   0  0  0  0  0  0  0  0  0  0  0  0
    4.9664   -2.3567   -0.3055 H   0  0  0  0  0  0  0  0  0  0  0  0
    1.6734    2.3425    1.9468 H   0  0  0  0  0  0  0  0  0  0  0  0
    0.3601    4.3867    1.8643 H   0  0  0  0  0  0  0  0  0  0  0  0
    0.4446    5.8486   -0.0767 H   0  0  0  0  0  0  0  0  0  0  0  0
  1  2  1  0  0  0  0
  1 12  1  0  0  0  0
  2 27  1  0  0  0  0
  2 28  1  0  0  0  0
  2 29  1  0  0  0  0
  3 13  1  0  0  0  0
  4 23  1  0  0  0  0
  4 30  1  0  0  0  0
  4 31  1  0  0  0  0
  5  6  1  0  0  0  0
  5  7  2  0  0  0  0
  5 26  1  0  0  0  0
  6  8  1  0  0  0  0
  6 32  1  0  0  0  0
  8  9  1  0  0  0  0
  8 33  1  0  0  0  0
  8 34  1  0  0  0  0
  9 10  1  0  0  0  0
  9 35  1  0  0  0  0
  9 36  1  0  0  0  0
 10 37  1  0  0  0  0
 10 38  1  0  0  0  0
 10 39  1  0  0  0  0
 11 12  2  0  0  0  0
 11 13  1  0  0  0  0
 11 17  1  0  0  0  0
 12 14  1  0  0  0  0
 13 15  2  0  0  0  0
 14 16  2  0  0  0  0
 14 40  1  0  0  0  0
 15 16  1  0  0  0  0
 15 41  1  0  0  0  0
 16 42  1  0  0  0  0
 17 18  1  0  0  0  0
 17 19  2  0  0  0  0
 18 20  2  0  0  0  0
 18 21  1  0  0  0  0
 19 22  1  0  0  0  0
 19 43  1  0  0  0  0
 20 23  1  0  0  0  0
 20 24  1  0  0  0  0
 21 25  2  0  0  0  0
 22 24  2  0  0  0  0
 22 44  1  0  0  0  0
 23 26  2  0  0  0  0
 24 45  1  0  0  0  0
 25 26  1  0  0  0  0
M  END
>  <Mol_ID>
6888

>  <Formula>
C19H19FN4O2

>  <MolWeight>
354.3781632

>  <Cat>
S0164

>  <Name>
AZD-7325

>  <Synonyms>
N/A

>  <Target>
GABA Receptor

>  <Form>
Free base

>  <CAS>
942437-37-8

>  <URL>
http://www.selleckchem.com/products/azd-7325.html

$$$$
