AZD1480
 OpenBabel08302520403D

 38 40  0  0  0  0  0  0  0  0999 V2000
    1.4197    7.5864    0.2947 C   0  0  0  0  0  0  0  0  0  0  0  0
    1.5571    6.2480    0.2303 N   0  0  0  0  0  0  0  0  0  0  0  0
    1.5401    5.6716   -0.9827 C   0  0  0  0  0  0  0  0  0  0  0  0
    1.3992    6.3515   -2.1255 N   0  0  0  0  0  0  0  0  0  0  0  0
    1.2801    7.6811   -2.0363 C   0  0  0  0  0  0  0  0  0  0  0  0
    1.2750    8.3497   -0.8460 C   0  0  0  0  0  0  0  0  0  0  0  0
    1.3795    8.1911    1.5669 N   0  0  0  0  0  0  0  0  0  0  0  0
    1.7316    9.4624    1.8632 C   0  0  0  0  0  0  0  0  0  0  0  0
    2.6270   10.1954    1.1949 N   0  0  0  0  0  0  0  0  0  0  0  0
    2.6060   11.3874    1.7941 N   0  0  0  0  0  0  0  0  0  0  0  0
    1.6765   11.4842    2.7882 C   0  0  0  0  0  0  0  0  0  0  0  0
    1.1339   10.2199    2.9010 C   0  0  0  0  0  0  0  0  0  0  0  0
    1.4155   12.7675    3.4742 C   0  0  0  0  0  0  0  0  0  0  0  0
    1.7793    4.3003   -1.0322 N   0  0  0  0  0  0  0  0  0  0  0  0
    1.2688    3.5571   -2.2055 C   0  0  2  0  0  0  0  0  0  0  0  0
    1.8658    3.9483   -3.5658 C   0  0  0  0  0  0  0  0  0  0  0  0
    1.0181    4.1394   -4.6082 N   0  0  0  0  0  0  0  0  0  0  0  0
    1.5660    4.5142   -5.7819 C   0  0  0  0  0  0  0  0  0  0  0  0
    2.9159    4.6678   -5.9624 C   0  0  0  0  0  0  0  0  0  0  0  0
    3.7057    4.4065   -4.8693 C   0  0  0  0  0  0  0  0  0  0  0  0
    3.2175    4.0343   -3.6628 N   0  0  0  0  0  0  0  0  0  0  0  0
    3.4310    5.0424   -7.1383 F   0  0  0  0  0  0  0  0  0  0  0  0
   -0.2638    3.5248   -2.2021 C   0  0  0  0  0  0  0  0  0  0  0  0
    1.1883    8.2114   -2.9777 H   0  0  0  0  0  0  0  0  0  0  0  0
    1.1517    9.4227   -0.8125 H   0  0  0  0  0  0  0  0  0  0  0  0
    1.4204    7.4776    2.2844 H   0  0  0  0  0  0  0  0  0  0  0  0
    3.2304   12.1067    1.4456 H   0  0  0  0  0  0  0  0  0  0  0  0
    0.3486    9.9111    3.5766 H   0  0  0  0  0  0  0  0  0  0  0  0
    2.3097   13.1118    4.0031 H   0  0  0  0  0  0  0  0  0  0  0  0
    1.1361   13.5362    2.7443 H   0  0  0  0  0  0  0  0  0  0  0  0
    0.5987   12.6775    4.1957 H   0  0  0  0  0  0  0  0  0  0  0  0
    2.7944    4.2346   -1.0192 H   0  0  0  0  0  0  0  0  0  0  0  0
    1.5944    2.5198   -2.0493 H   0  0  0  0  0  0  0  0  0  0  0  0
    0.8683    4.6915   -6.5927 H   0  0  0  0  0  0  0  0  0  0  0  0
    4.7848    4.4954   -4.9361 H   0  0  0  0  0  0  0  0  0  0  0  0
   -0.6303    2.7439   -2.8786 H   0  0  0  0  0  0  0  0  0  0  0  0
   -0.6561    3.3128   -1.2022 H   0  0  0  0  0  0  0  0  0  0  0  0
   -0.6940    4.4754   -2.5368 H   0  0  0  0  0  0  0  0  0  0  0  0
  1  2  2  0  0  0  0
  1  7  1  0  0  0  0
  2  3  1  0  0  0  0
  3  4  2  0  0  0  0
  3 14  1  0  0  0  0
  4  5  1  0  0  0  0
  5  6  2  0  0  0  0
  5 24  1  0  0  0  0
  6  1  1  0  0  0  0
  6 25  1  0  0  0  0
  7  8  1  0  0  0  0
  7 26  1  0  0  0  0
  8  9  2  0  0  0  0
  9 10  1  0  0  0  0
 10 11  1  0  0  0  0
 10 27  1  0  0  0  0
 11 12  2  0  0  0  0
 11 13  1  0  0  0  0
 12  8  1  0  0  0  0
 12 28  1  0  0  0  0
 13 29  1  0  0  0  0
 13 30  1  0  0  0  0
 13 31  1  0  0  0  0
 14 32  1  0  0  0  0
 15 23  1  0  0  0  0
 15 33  1  1  0  0  0
 15 16  1  0  0  0  0
 15 14  1  0  0  0  0
 16 17  2  0  0  0  0
 17 18  1  0  0  0  0
 18 19  2  0  0  0  0
 18 34  1  0  0  0  0
 19 20  1  0  0  0  0
 19 22  1  0  0  0  0
 20 21  2  0  0  0  0
 20 35  1  0  0  0  0
 21 16  1  0  0  0  0
 23 36  1  0  0  0  0
 23 37  1  0  0  0  0
 23 38  1  0  0  0  0
M  END
>  <Mol_ID>
3789

>  <Formula>
C14H14ClFN8

>  <MolWeight>
348.7659632

>  <Cat>
S2162

>  <Name>
AZD1480

>  <Synonyms>
N/A

>  <Target>
JAK

>  <Form>
free base

>  <CAS>
935666-88-9

>  <URL>
http://www.selleck.cn/products/AZD1480.html

$$$$
