AZD2281.cdx
 OpenBabel08302520323D

 55 59  0  0  0  0  0  0  0  0999 V2000
   -2.0912   -5.6126    0.3441 C   0  0  0  0  0  0  0  0  0  0  0  0
   -2.7380   -6.8481    0.4660 C   0  0  0  0  0  0  0  0  0  0  0  0
   -2.1567   -7.8779    1.2053 C   0  0  0  0  0  0  0  0  0  0  0  0
   -0.9671   -7.6485    1.8927 C   0  0  0  0  0  0  0  0  0  0  0  0
   -0.3528   -6.3926    1.8147 C   0  0  0  0  0  0  0  0  0  0  0  0
   -0.8656   -5.3978    0.9844 C   0  0  0  0  0  0  0  0  0  0  0  0
    0.7837   -6.0689    2.6939 C   0  0  0  0  0  0  0  0  0  0  0  0
    1.2498   -4.7791    2.6185 N   0  0  0  0  0  0  0  0  0  0  0  0
    0.9272   -3.8751    1.6532 N   0  0  0  0  0  0  0  0  0  0  0  0
   -0.0526   -4.1600    0.8466 C   0  0  0  0  0  0  0  0  0  0  0  0
    1.2342   -6.8905    3.4834 O   0  0  0  0  0  0  0  0  0  0  0  0
   -0.3094   -3.1905   -0.2986 C   0  0  0  0  0  0  0  0  0  0  0  0
    0.4551   -3.5230   -1.5696 C   0  0  0  0  0  0  0  0  0  0  0  0
    1.6814   -2.8912   -1.8725 C   0  0  0  0  0  0  0  0  0  0  0  0
    2.3209   -3.0898   -3.1155 C   0  0  0  0  0  0  0  0  0  0  0  0
    1.6885   -3.8943   -4.0596 C   0  0  0  0  0  0  0  0  0  0  0  0
    0.5298   -4.5994   -3.7396 C   0  0  0  0  0  0  0  0  0  0  0  0
   -0.0825   -4.4198   -2.5011 C   0  0  0  0  0  0  0  0  0  0  0  0
    3.5672   -2.3236   -3.4069 C   0  0  0  0  0  0  0  0  0  0  0  0
    4.6349   -2.8666   -4.1309 N   0  0  0  0  0  0  0  0  0  0  0  0
    3.6218   -1.1804   -2.9421 O   0  0  0  0  0  0  0  0  0  0  0  0
    2.1485   -4.0043   -5.3126 F   0  0  0  0  0  0  0  0  0  0  0  0
    4.7318   -4.2172   -4.6842 C   0  0  0  0  0  0  0  0  0  0  0  0
    6.1007   -4.8707   -4.4472 C   0  0  0  0  0  0  0  0  0  0  0  0
    7.2338   -3.9974   -4.7400 N   0  0  0  0  0  0  0  0  0  0  0  0
    7.1101   -2.6234   -4.2334 C   0  0  0  0  0  0  0  0  0  0  0  0
    5.7416   -1.9915   -4.5323 C   0  0  0  0  0  0  0  0  0  0  0  0
    8.5345   -4.4676   -4.9660 C   0  0  0  0  0  0  0  0  0  0  0  0
    9.4914   -3.7107   -5.0929 O   0  0  0  0  0  0  0  0  0  0  0  0
    8.7633   -5.9466   -4.9935 C   0  0  0  0  0  0  0  0  0  0  0  0
    9.7749   -6.5178   -4.0205 C   0  0  0  0  0  0  0  0  0  0  0  0
   10.0635   -6.5359   -5.4920 C   0  0  0  0  0  0  0  0  0  0  0  0
   -2.5822   -4.8359   -0.2332 H   0  0  0  0  0  0  0  0  0  0  0  0
   -3.7007   -7.0090   -0.0157 H   0  0  0  0  0  0  0  0  0  0  0  0
   -2.6474   -8.8463    1.2766 H   0  0  0  0  0  0  0  0  0  0  0  0
   -0.5341   -8.4343    2.5092 H   0  0  0  0  0  0  0  0  0  0  0  0
    2.0063   -4.5211    3.2450 H   0  0  0  0  0  0  0  0  0  0  0  0
   -1.3769   -3.1184   -0.5255 H   0  0  0  0  0  0  0  0  0  0  0  0
   -0.0299   -2.1829    0.0361 H   0  0  0  0  0  0  0  0  0  0  0  0
    2.1207   -2.2033   -1.1553 H   0  0  0  0  0  0  0  0  0  0  0  0
    0.0908   -5.2609   -4.4817 H   0  0  0  0  0  0  0  0  0  0  0  0
   -1.0096   -4.9489   -2.2981 H   0  0  0  0  0  0  0  0  0  0  0  0
    3.9808   -4.8838   -4.2612 H   0  0  0  0  0  0  0  0  0  0  0  0
    4.5520   -4.1273   -5.7639 H   0  0  0  0  0  0  0  0  0  0  0  0
    6.1965   -5.1774   -3.4000 H   0  0  0  0  0  0  0  0  0  0  0  0
    6.1373   -5.7679   -5.0706 H   0  0  0  0  0  0  0  0  0  0  0  0
    7.2520   -2.6811   -3.1479 H   0  0  0  0  0  0  0  0  0  0  0  0
    7.9062   -1.9884   -4.6341 H   0  0  0  0  0  0  0  0  0  0  0  0
    5.6416   -1.8304   -5.6163 H   0  0  0  0  0  0  0  0  0  0  0  0
    5.6773   -1.0093   -4.0547 H   0  0  0  0  0  0  0  0  0  0  0  0
    7.9116   -6.5696   -5.2169 H   0  0  0  0  0  0  0  0  0  0  0  0
   10.3505   -5.8288   -3.4107 H   0  0  0  0  0  0  0  0  0  0  0  0
    9.5347   -7.4525   -3.5286 H   0  0  0  0  0  0  0  0  0  0  0  0
   10.0251   -7.4920   -6.0019 H   0  0  0  0  0  0  0  0  0  0  0  0
   10.8217   -5.8603   -5.8743 H   0  0  0  0  0  0  0  0  0  0  0  0
  1  2  2  0  0  0  0
  1 33  1  0  0  0  0
  2  3  1  0  0  0  0
  2 34  1  0  0  0  0
  3  4  2  0  0  0  0
  3 35  1  0  0  0  0
  4  5  1  0  0  0  0
  4 36  1  0  0  0  0
  5  6  2  0  0  0  0
  5  7  1  0  0  0  0
  6  1  1  0  0  0  0
  7  8  1  0  0  0  0
  7 11  2  0  0  0  0
  8  9  1  0  0  0  0
  8 37  1  0  0  0  0
  9 10  2  0  0  0  0
 10  6  1  0  0  0  0
 10 12  1  0  0  0  0
 12 13  1  0  0  0  0
 12 38  1  0  0  0  0
 12 39  1  0  0  0  0
 13 14  2  0  0  0  0
 14 15  1  0  0  0  0
 14 40  1  0  0  0  0
 15 16  2  0  0  0  0
 15 19  1  0  0  0  0
 16 17  1  0  0  0  0
 16 22  1  0  0  0  0
 17 18  2  0  0  0  0
 17 41  1  0  0  0  0
 18 13  1  0  0  0  0
 18 42  1  0  0  0  0
 19 20  1  0  0  0  0
 19 21  2  0  0  0  0
 20 23  1  0  0  0  0
 23 24  1  0  0  0  0
 23 43  1  0  0  0  0
 23 44  1  0  0  0  0
 24 25  1  0  0  0  0
 24 45  1  0  0  0  0
 24 46  1  0  0  0  0
 25 26  1  0  0  0  0
 25 28  1  0  0  0  0
 26 27  1  0  0  0  0
 26 47  1  0  0  0  0
 26 48  1  0  0  0  0
 27 20  1  0  0  0  0
 27 49  1  0  0  0  0
 27 50  1  0  0  0  0
 28 29  2  0  0  0  0
 28 30  1  0  0  0  0
 30 31  1  0  0  0  0
 30 51  1  0  0  0  0
 31 32  1  0  0  0  0
 31 52  1  0  0  0  0
 31 53  1  0  0  0  0
 32 30  1  0  0  0  0
 32 54  1  0  0  0  0
 32 55  1  0  0  0  0
M  END
>  <Mol_ID>
37

>  <Formula>
C24H23FN4O3

>  <MolWeight>
434.4628232

>  <Cat>
S1060

>  <Name>
Olaparib (AZD2281)

>  <Synonyms>
Ku-0059436

>  <Target>
Autophagy,Mitophagy,PARP

>  <Form>
free base

>  <CAS>
763113-22-0

>  <URL>
http://selleckchem.com/products/AZD2281(Olaparib).html

$$$$
