AZD3264.cdx
 OpenBabel08302519563D

 54 57  0  0  0  0  0  0  0  0999 V2000
    3.5816    5.3820   -1.8486 C   0  0  0  0  0  0  0  0  0  0  0  0
    3.0636    6.3323   -2.7328 C   0  0  0  0  0  0  0  0  0  0  0  0
    2.0863    5.9201   -3.6188 C   0  0  0  0  0  0  0  0  0  0  0  0
    1.6632    4.5926   -3.6153 C   0  0  0  0  0  0  0  0  0  0  0  0
    2.2117    3.6016   -2.7614 C   0  0  0  0  0  0  0  0  0  0  0  0
    3.1609    4.0316   -1.8121 C   0  0  0  0  0  0  0  0  0  0  0  0
    3.6520    3.1518   -0.8592 O   0  0  0  0  0  0  0  0  0  0  0  0
    4.2704    3.7562    0.2925 C   0  0  1  0  0  0  0  0  0  0  0  0
    3.2519    4.4665    1.1794 C   0  0  0  0  0  0  0  0  0  0  0  0
    3.9868    4.5627    2.4934 C   0  0  0  0  0  0  0  0  0  0  0  0
    4.5978    3.2377    2.6430 N   0  0  0  0  0  0  0  0  0  0  0  0
    4.9077    2.7619    1.2735 C   0  0  0  0  0  0  0  0  0  0  0  0
    1.6922    2.2219   -2.9127 C   0  0  0  0  0  0  0  0  0  0  0  0
    1.1134    1.7133   -4.4580 S   0  0  0  0  0  0  0  0  0  0  0  0
    0.2937    0.3854   -3.8200 C   0  0  0  0  0  0  0  0  0  0  0  0
    0.7413    0.0825   -2.5405 C   0  0  0  0  0  0  0  0  0  0  0  0
    1.5603    1.1684   -2.0260 C   0  0  0  0  0  0  0  0  0  0  0  0
    0.3131   -1.1234   -1.8362 C   0  0  0  0  0  0  0  0  0  0  0  0
   -0.4796   -1.9331   -2.3100 O   0  0  0  0  0  0  0  0  0  0  0  0
    0.8474   -1.3323   -0.5986 N   0  0  0  0  0  0  0  0  0  0  0  0
   -0.6350   -0.3125   -4.5765 N   0  0  0  0  0  0  0  0  0  0  0  0
   -1.3557    0.0359   -5.6752 C   0  0  0  0  0  0  0  0  0  0  0  0
   -2.1507   -0.7488   -6.1875 O   0  0  0  0  0  0  0  0  0  0  0  0
   -1.2318    1.2747   -6.1934 N   0  0  0  0  0  0  0  0  0  0  0  0
    3.5365    7.7082   -2.6818 C   0  0  0  0  0  0  0  0  0  0  0  0
    4.8209    8.2464   -2.3586 C   0  0  0  0  0  0  0  0  0  0  0  0
    4.8107    9.5838   -2.3961 N   0  0  0  0  0  0  0  0  0  0  0  0
    3.5258    9.9436   -2.7322 O   0  0  0  0  0  0  0  0  0  0  0  0
    2.7596    8.8318   -2.8920 C   0  0  0  0  0  0  0  0  0  0  0  0
    6.0847    7.5475   -2.0130 C   0  0  0  0  0  0  0  0  0  0  0  0
    1.3390    9.0923   -3.2066 C   0  0  0  0  0  0  0  0  0  0  0  0
    4.3185    5.7391   -1.1477 H   0  0  0  0  0  0  0  0  0  0  0  0
    1.6355    6.5939   -4.3376 H   0  0  0  0  0  0  0  0  0  0  0  0
    0.8626    4.3501   -4.3125 H   0  0  0  0  0  0  0  0  0  0  0  0
    5.0964    4.4150   -0.0033 H   0  0  0  0  0  0  0  0  0  0  0  0
    2.3396    3.8634    1.2733 H   0  0  0  0  0  0  0  0  0  0  0  0
    2.9554    5.4495    0.8043 H   0  0  0  0  0  0  0  0  0  0  0  0
    4.7668    5.3336    2.4472 H   0  0  0  0  0  0  0  0  0  0  0  0
    3.3191    4.8064    3.3251 H   0  0  0  0  0  0  0  0  0  0  0  0
    3.9038    2.6097    3.0514 H   0  0  0  0  0  0  0  0  0  0  0  0
    4.5585    1.7370    1.1281 H   0  0  0  0  0  0  0  0  0  0  0  0
    5.9984    2.7617    1.1493 H   0  0  0  0  0  0  0  0  0  0  0  0
    1.9433    1.2144   -1.0153 H   0  0  0  0  0  0  0  0  0  0  0  0
    1.5739   -0.7652   -0.2014 H   0  0  0  0  0  0  0  0  0  0  0  0
    0.5891   -2.1866   -0.1290 H   0  0  0  0  0  0  0  0  0  0  0  0
   -0.9359   -1.2026   -4.1841 H   0  0  0  0  0  0  0  0  0  0  0  0
   -0.8974    2.0148   -5.5904 H   0  0  0  0  0  0  0  0  0  0  0  0
   -1.9121    1.5216   -6.8962 H   0  0  0  0  0  0  0  0  0  0  0  0
    6.0024    7.0494   -1.0417 H   0  0  0  0  0  0  0  0  0  0  0  0
    6.3331    6.7981   -2.7710 H   0  0  0  0  0  0  0  0  0  0  0  0
    6.9251    8.2450   -1.9395 H   0  0  0  0  0  0  0  0  0  0  0  0
    1.0758    8.6990   -4.1928 H   0  0  0  0  0  0  0  0  0  0  0  0
    0.6878    8.6279   -2.4594 H   0  0  0  0  0  0  0  0  0  0  0  0
    1.1245   10.1648   -3.2213 H   0  0  0  0  0  0  0  0  0  0  0  0
  1  2  2  0  0  0  0
  1 32  1  0  0  0  0
  2  3  1  0  0  0  0
  2 25  1  0  0  0  0
  3  4  2  0  0  0  0
  3 33  1  0  0  0  0
  4  5  1  0  0  0  0
  4 34  1  0  0  0  0
  5  6  2  0  0  0  0
  5 13  1  0  0  0  0
  6  1  1  0  0  0  0
  6  7  1  0  0  0  0
  8  9  1  0  0  0  0
  8 35  1  6  0  0  0
  8  7  1  0  0  0  0
  9 10  1  0  0  0  0
  9 36  1  0  0  0  0
  9 37  1  0  0  0  0
 10 11  1  0  0  0  0
 10 38  1  0  0  0  0
 10 39  1  0  0  0  0
 11 12  1  0  0  0  0
 11 40  1  0  0  0  0
 12  8  1  0  0  0  0
 12 41  1  0  0  0  0
 12 42  1  0  0  0  0
 13 14  1  0  0  0  0
 14 15  1  0  0  0  0
 15 16  2  0  0  0  0
 15 21  1  0  0  0  0
 16 17  1  0  0  0  0
 16 18  1  0  0  0  0
 17 13  2  0  0  0  0
 17 43  1  0  0  0  0
 18 19  2  0  0  0  0
 18 20  1  0  0  0  0
 20 44  1  0  0  0  0
 20 45  1  0  0  0  0
 21 22  1  0  0  0  0
 21 46  1  0  0  0  0
 22 23  2  0  0  0  0
 22 24  1  0  0  0  0
 24 47  1  0  0  0  0
 24 48  1  0  0  0  0
 25 26  1  0  0  0  0
 26 27  2  0  0  0  0
 26 30  1  0  0  0  0
 27 28  1  0  0  0  0
 28 29  1  0  0  0  0
 29 25  2  0  0  0  0
 29 31  1  0  0  0  0
 30 49  1  0  0  0  0
 30 50  1  0  0  0  0
 30 51  1  0  0  0  0
 31 52  1  0  0  0  0
 31 53  1  0  0  0  0
 31 54  1  0  0  0  0
M  END
>  <Mol_ID>
2215

>  <Formula>
C21H23N5O4S

>  <MolWeight>
441.50342

>  <Cat>
S7851

>  <Name>
AZD3264

>  <Synonyms>
N/A

>  <Target>
I¦ÊB/IKK

>  <Form>
free base

>  <CAS>
1609281-86-8

>  <URL>
http://selleckchem.com/products/azd3264.html

$$$$
