AZD3293 (LY3314814).cdx
 OpenBabel08302520413D

 59 63  0  0  0  0  0  0  0  0999 V2000
    1.3690   -0.6466    0.2433 C   0  0  0  0  0  0  0  0  0  0  0  0
    1.0732    0.6661   -0.1130 C   0  0  0  0  0  0  0  0  0  0  0  0
    2.0757    1.6283   -0.1964 C   0  0  0  0  0  0  0  0  0  0  0  0
    3.4137    1.2763    0.0675 C   0  0  0  0  0  0  0  0  0  0  0  0
    3.6845   -0.0750    0.3932 C   0  0  0  0  0  0  0  0  0  0  0  0
    2.6723   -1.0390    0.4754 C   0  0  0  0  0  0  0  0  0  0  0  0
    0.1462   -1.5077    0.1974 C   0  0  0  0  0  0  0  0  0  0  0  0
   -1.0411   -0.4816    0.2046 C   0  0  1  0  0  0  0  0  0  0  0  0
   -0.3760    0.7969   -0.4899 C   0  0  2  0  0  0  0  0  0  0  0  0
   -2.2213   -1.1433   -0.5595 C   0  0  0  0  0  0  0  0  0  0  0  0
   -3.5274   -0.3546   -0.5446 C   0  0  0  0  0  0  0  0  0  0  0  0
   -4.0096    0.0005    0.8574 C   0  0  2  0  0  0  0  0  0  0  0  0
   -2.8827    0.5128    1.7676 C   0  0  0  0  0  0  0  0  0  0  0  0
   -1.5431   -0.2385    1.6558 C   0  0  0  0  0  0  0  0  0  0  0  0
   -0.5443    0.6382   -1.9541 N   0  0  0  0  0  0  0  0  0  0  0  0
   -1.4831    1.4877   -2.2008 C   0  0  0  0  0  0  0  0  0  0  0  0
   -1.6988    2.4259   -1.0548 C   0  0  0  0  0  0  0  0  0  0  0  0
   -0.9868    2.0637   -0.0413 N   0  0  0  0  0  0  0  0  0  0  0  0
    4.5015    2.2792   -0.0124 C   0  0  0  0  0  0  0  0  0  0  0  0
    4.3138    3.6162    0.3556 C   0  0  0  0  0  0  0  0  0  0  0  0
    5.2678    4.5824    0.3182 N   0  0  0  0  0  0  0  0  0  0  0  0
    6.4944    4.2013   -0.1042 C   0  0  0  0  0  0  0  0  0  0  0  0
    6.8040    2.9105   -0.4934 C   0  0  0  0  0  0  0  0  0  0  0  0
    5.7936    1.9494   -0.4548 C   0  0  0  0  0  0  0  0  0  0  0  0
    8.1256    2.5563   -0.9113 C   0  0  0  0  0  0  0  0  0  0  0  0
   -4.6413   -1.1240    1.4774 O   0  0  0  0  0  0  0  0  0  0  0  0
   -5.9113   -1.4359    0.9061 C   0  0  0  0  0  0  0  0  0  0  0  0
   -2.3512    1.3957   -3.3985 C   0  0  0  0  0  0  0  0  0  0  0  0
   -2.5088    3.5205   -1.0270 N   0  0  0  0  0  0  0  0  0  0  0  0
    9.2281    2.2176   -1.2402 C   0  0  0  0  0  0  0  0  0  0  0  0
   10.5649    1.7634   -1.6250 C   0  0  0  0  0  0  0  0  0  0  0  0
    1.8047    2.6355   -0.5029 H   0  0  0  0  0  0  0  0  0  0  0  0
    4.7045   -0.3999    0.5876 H   0  0  0  0  0  0  0  0  0  0  0  0
    2.9135   -2.0745    0.6932 H   0  0  0  0  0  0  0  0  0  0  0  0
    0.1024   -2.2075    1.0362 H   0  0  0  0  0  0  0  0  0  0  0  0
    0.1683   -2.0744   -0.7423 H   0  0  0  0  0  0  0  0  0  0  0  0
   -2.4195   -2.1251   -0.1077 H   0  0  0  0  0  0  0  0  0  0  0  0
   -1.9459   -1.3623   -1.5981 H   0  0  0  0  0  0  0  0  0  0  0  0
   -4.2688   -0.9422   -1.0937 H   0  0  0  0  0  0  0  0  0  0  0  0
   -3.4471    0.5697   -1.1070 H   0  0  0  0  0  0  0  0  0  0  0  0
   -4.7548    0.8050    0.7836 H   0  0  0  0  0  0  0  0  0  0  0  0
   -2.7230    1.5752    1.5613 H   0  0  0  0  0  0  0  0  0  0  0  0
   -3.2133    0.4647    2.8127 H   0  0  0  0  0  0  0  0  0  0  0  0
   -1.6810   -1.2122    2.1452 H   0  0  0  0  0  0  0  0  0  0  0  0
   -0.7840    0.2900    2.2450 H   0  0  0  0  0  0  0  0  0  0  0  0
    3.3523    3.9678    0.7215 H   0  0  0  0  0  0  0  0  0  0  0  0
    7.2412    4.9917   -0.1118 H   0  0  0  0  0  0  0  0  0  0  0  0
    6.0204    0.9365   -0.7792 H   0  0  0  0  0  0  0  0  0  0  0  0
   -6.5384   -0.5426    0.8119 H   0  0  0  0  0  0  0  0  0  0  0  0
   -5.7936   -1.9097   -0.0723 H   0  0  0  0  0  0  0  0  0  0  0  0
   -6.4179   -2.1495    1.5593 H   0  0  0  0  0  0  0  0  0  0  0  0
   -1.7943    1.6554   -4.2978 H   0  0  0  0  0  0  0  0  0  0  0  0
   -2.6627    0.3448   -3.4852 H   0  0  0  0  0  0  0  0  0  0  0  0
   -3.2519    2.0004   -3.2957 H   0  0  0  0  0  0  0  0  0  0  0  0
   -2.3328    4.0268   -0.1585 H   0  0  0  0  0  0  0  0  0  0  0  0
   -3.4945    3.2737   -1.0202 H   0  0  0  0  0  0  0  0  0  0  0  0
   11.0489    2.4844   -2.2890 H   0  0  0  0  0  0  0  0  0  0  0  0
   11.1992    1.6314   -0.7422 H   0  0  0  0  0  0  0  0  0  0  0  0
   10.5080    0.8033   -2.1472 H   0  0  0  0  0  0  0  0  0  0  0  0
  1  2  1  0  0  0  0
  1  7  1  0  0  0  0
  2  3  2  0  0  0  0
  3  4  1  0  0  0  0
  3 32  1  0  0  0  0
  4  5  2  0  0  0  0
  4 19  1  0  0  0  0
  5  6  1  0  0  0  0
  5 33  1  0  0  0  0
  6  1  2  0  0  0  0
  6 34  1  0  0  0  0
  7 35  1  0  0  0  0
  7 36  1  0  0  0  0
  8  7  1  1  0  0  0
  8  9  1  0  0  0  0
  8 10  1  0  0  0  0
  8 14  1  0  0  0  0
  9  2  1  1  0  0  0
  9 15  1  0  0  0  0
 10 11  1  0  0  0  0
 10 37  1  0  0  0  0
 10 38  1  0  0  0  0
 11 12  1  0  0  0  0
 11 39  1  0  0  0  0
 11 40  1  0  0  0  0
 12 13  1  0  0  0  0
 12 41  1  6  0  0  0
 12 26  1  0  0  0  0
 13 14  1  0  0  0  0
 13 42  1  0  0  0  0
 13 43  1  0  0  0  0
 14 44  1  0  0  0  0
 14 45  1  0  0  0  0
 15 16  2  0  0  0  0
 16 17  1  0  0  0  0
 16 28  1  0  0  0  0
 17 18  2  0  0  0  0
 17 29  1  0  0  0  0
 18  9  1  0  0  0  0
 19 20  2  0  0  0  0
 20 21  1  0  0  0  0
 20 46  1  0  0  0  0
 21 22  2  0  0  0  0
 22 23  1  0  0  0  0
 22 47  1  0  0  0  0
 23 24  2  0  0  0  0
 23 25  1  0  0  0  0
 24 19  1  0  0  0  0
 24 48  1  0  0  0  0
 25 30  3  0  0  0  0
 26 27  1  0  0  0  0
 27 49  1  0  0  0  0
 27 50  1  0  0  0  0
 27 51  1  0  0  0  0
 28 52  1  0  0  0  0
 28 53  1  0  0  0  0
 28 54  1  0  0  0  0
 29 55  1  0  0  0  0
 29 56  1  0  0  0  0
 30 31  1  0  0  0  0
 31 57  1  0  0  0  0
 31 58  1  0  0  0  0
 31 59  1  0  0  0  0
M  END
>  <Mol_ID>
3972

>  <Formula>
C26H28N4O

>  <MolWeight>
412.52672

>  <Cat>
S8193

>  <Name>
Lanabecestat (AZD3293)

>  <Synonyms>
LY3314814

>  <Target>
BACE

>  <Form>
free base

>  <CAS>
1383982-64-6

>  <URL>
http://selleckchem.com/products/azd3293-ly3314814.html

$$$$
