AZD3229
 OpenBabel08302521223D

 61 64  0  0  0  0  0  0  0  0999 V2000
    2.3883   -0.0092    1.0635 C   0  0  0  0  0  0  0  0  0  0  0  0
    2.2704    0.7691    2.2005 C   0  0  0  0  0  0  0  0  0  0  0  0
    0.9912    0.9909    2.7304 C   0  0  0  0  0  0  0  0  0  0  0  0
   -0.1547    0.3821    2.2085 C   0  0  0  0  0  0  0  0  0  0  0  0
   -0.0002   -0.5374    1.1737 C   0  0  0  0  0  0  0  0  0  0  0  0
    1.2626   -0.6289    0.5513 C   0  0  0  0  0  0  0  0  0  0  0  0
   -1.3609    0.6758    2.7135 N   0  0  0  0  0  0  0  0  0  0  0  0
   -2.4118    0.0202    2.1977 C   0  0  0  0  0  0  0  0  0  0  0  0
   -2.3624   -0.9838    1.3146 N   0  0  0  0  0  0  0  0  0  0  0  0
   -1.1392   -1.3061    0.8591 C   0  0  0  0  0  0  0  0  0  0  0  0
    3.3149    1.3467    2.8730 O   0  0  0  0  0  0  0  0  0  0  0  0
    4.5749    1.3566    2.1940 C   0  0  0  0  0  0  0  0  0  0  0  0
    5.6932    1.7618    3.1484 C   0  0  0  0  0  0  0  0  0  0  0  0
    6.9181    1.7938    2.4120 O   0  0  0  0  0  0  0  0  0  0  0  0
    8.0116    2.2193    3.2117 C   0  0  0  0  0  0  0  0  0  0  0  0
    1.4188   -1.3064   -0.5962 F   0  0  0  0  0  0  0  0  0  0  0  0
   -1.0581   -2.5020    0.1170 N   0  0  0  0  0  0  0  0  0  0  0  0
   -0.0309   -3.4719    0.1590 C   0  0  0  0  0  0  0  0  0  0  0  0
    0.7854   -3.6649    1.2822 C   0  0  0  0  0  0  0  0  0  0  0  0
    1.9847   -4.3857    1.1926 C   0  0  0  0  0  0  0  0  0  0  0  0
    2.3838   -4.9431   -0.0211 C   0  0  0  0  0  0  0  0  0  0  0  0
    1.4997   -4.8729   -1.1070 C   0  0  0  0  0  0  0  0  0  0  0  0
    0.2917   -4.1639   -1.0107 C   0  0  0  0  0  0  0  0  0  0  0  0
    3.6416   -5.5555   -0.2379 N   0  0  0  0  0  0  0  0  0  0  0  0
    4.7002   -5.6482    0.6658 C   0  0  0  0  0  0  0  0  0  0  0  0
    4.7157   -5.1987    1.8083 O   0  0  0  0  0  0  0  0  0  0  0  0
    5.8890   -6.4198    0.1382 C   0  0  0  0  0  0  0  0  0  0  0  0
    6.9206   -5.5481   -0.3677 N   0  0  0  0  0  0  0  0  0  0  0  0
    7.9234   -4.9258    0.3158 C   0  0  0  0  0  0  0  0  0  0  0  0
    8.7048   -4.3662   -0.6737 C   0  0  0  0  0  0  0  0  0  0  0  0
    8.1555   -4.6644   -1.8927 N   0  0  0  0  0  0  0  0  0  0  0  0
    7.0609   -5.3844   -1.6944 N   0  0  0  0  0  0  0  0  0  0  0  0
    9.9426   -3.5335   -0.5597 C   0  0  0  0  0  0  0  0  0  0  0  0
   11.1719   -4.2581   -1.1151 C   0  0  0  0  0  0  0  0  0  0  0  0
    9.7659   -2.1858   -1.2642 C   0  0  0  0  0  0  0  0  0  0  0  0
    3.3223   -0.1947    0.5487 H   0  0  0  0  0  0  0  0  0  0  0  0
    0.8819    1.6534    3.5871 H   0  0  0  0  0  0  0  0  0  0  0  0
   -3.3953    0.3240    2.5427 H   0  0  0  0  0  0  0  0  0  0  0  0
    4.8410    0.3695    1.7990 H   0  0  0  0  0  0  0  0  0  0  0  0
    4.5268    2.0655    1.3583 H   0  0  0  0  0  0  0  0  0  0  0  0
    5.4848    2.7380    3.5966 H   0  0  0  0  0  0  0  0  0  0  0  0
    5.7711    1.0236    3.9570 H   0  0  0  0  0  0  0  0  0  0  0  0
    7.9018    3.2770    3.4668 H   0  0  0  0  0  0  0  0  0  0  0  0
    8.0900    1.6147    4.1196 H   0  0  0  0  0  0  0  0  0  0  0  0
    8.9294    2.0946    2.6294 H   0  0  0  0  0  0  0  0  0  0  0  0
   -1.9791   -2.8767   -0.0794 H   0  0  0  0  0  0  0  0  0  0  0  0
    0.5395   -3.1962    2.2325 H   0  0  0  0  0  0  0  0  0  0  0  0
    2.6071   -4.4361    2.0800 H   0  0  0  0  0  0  0  0  0  0  0  0
    1.7565   -5.3128   -2.0664 H   0  0  0  0  0  0  0  0  0  0  0  0
   -0.3363   -4.0568   -1.8911 H   0  0  0  0  0  0  0  0  0  0  0  0
    3.8210   -5.8561   -1.1894 H   0  0  0  0  0  0  0  0  0  0  0  0
    6.3172   -7.0163    0.9513 H   0  0  0  0  0  0  0  0  0  0  0  0
    5.5937   -7.1156   -0.6556 H   0  0  0  0  0  0  0  0  0  0  0  0
    7.9902   -4.9334    1.3961 H   0  0  0  0  0  0  0  0  0  0  0  0
   10.1303   -3.3306    0.5037 H   0  0  0  0  0  0  0  0  0  0  0  0
   11.0631   -4.4758   -2.1838 H   0  0  0  0  0  0  0  0  0  0  0  0
   12.0735   -3.6480   -0.9884 H   0  0  0  0  0  0  0  0  0  0  0  0
   11.3371   -5.2098   -0.5979 H   0  0  0  0  0  0  0  0  0  0  0  0
    8.8755   -1.6656   -0.8946 H   0  0  0  0  0  0  0  0  0  0  0  0
   10.6324   -1.5385   -1.0935 H   0  0  0  0  0  0  0  0  0  0  0  0
    9.6497   -2.3142   -2.3465 H   0  0  0  0  0  0  0  0  0  0  0  0
  1  2  2  0  0  0  0
  1 36  1  0  0  0  0
  2  3  1  0  0  0  0
  2 11  1  0  0  0  0
  3  4  2  0  0  0  0
  3 37  1  0  0  0  0
  4  5  1  0  0  0  0
  4  7  1  0  0  0  0
  5  6  2  0  0  0  0
  6  1  1  0  0  0  0
  6 16  1  0  0  0  0
  7  8  2  0  0  0  0
  8  9  1  0  0  0  0
  8 38  1  0  0  0  0
  9 10  2  0  0  0  0
 10  5  1  0  0  0  0
 10 17  1  0  0  0  0
 11 12  1  0  0  0  0
 12 13  1  0  0  0  0
 12 39  1  0  0  0  0
 12 40  1  0  0  0  0
 13 14  1  0  0  0  0
 13 41  1  0  0  0  0
 13 42  1  0  0  0  0
 14 15  1  0  0  0  0
 15 43  1  0  0  0  0
 15 44  1  0  0  0  0
 15 45  1  0  0  0  0
 17 18  1  0  0  0  0
 17 46  1  0  0  0  0
 18 19  2  0  0  0  0
 19 20  1  0  0  0  0
 19 47  1  0  0  0  0
 20 21  2  0  0  0  0
 20 48  1  0  0  0  0
 21 22  1  0  0  0  0
 21 24  1  0  0  0  0
 22 23  2  0  0  0  0
 22 49  1  0  0  0  0
 23 18  1  0  0  0  0
 23 50  1  0  0  0  0
 24 25  1  0  0  0  0
 24 51  1  0  0  0  0
 25 26  2  0  0  0  0
 25 27  1  0  0  0  0
 27 28  1  0  0  0  0
 27 52  1  0  0  0  0
 27 53  1  0  0  0  0
 28 29  1  0  0  0  0
 29 30  2  0  0  0  0
 29 54  1  0  0  0  0
 30 31  1  0  0  0  0
 30 33  1  0  0  0  0
 31 32  2  0  0  0  0
 32 28  1  0  0  0  0
 33 34  1  0  0  0  0
 33 35  1  0  0  0  0
 33 55  1  0  0  0  0
 34 56  1  0  0  0  0
 34 57  1  0  0  0  0
 34 58  1  0  0  0  0
 35 59  1  0  0  0  0
 35 60  1  0  0  0  0
 35 61  1  0  0  0  0
M  END
>  <Mol_ID>
4666

>  <Formula>
C24H26FN7O3

>  <MolWeight>
479.5067432

>  <Cat>
S8780

>  <Name>
AZD3229

>  <Synonyms>
N/A

>  <Target>
c-Kit,PDGFR

>  <Form>
free base

>  <CAS>
2248003-60-1

>  <URL>
http://www.selleck.cn/products/azd3229.html

$$$$
