AZD6738.cdx
 OpenBabel08302519563D

 53 57  0  0  0  0  0  0  0  0999 V2000
   -0.2896   -1.3638   -0.0581 C   0  0  0  0  0  0  0  0  0  0  0  0
    0.9244   -0.7040   -0.1132 C   0  0  0  0  0  0  0  0  0  0  0  0
    0.9538    0.6330   -0.1724 N   0  0  0  0  0  0  0  0  0  0  0  0
   -0.2062    1.2996   -0.1381 C   0  0  0  0  0  0  0  0  0  0  0  0
   -1.4160    0.7185   -0.0530 N   0  0  0  0  0  0  0  0  0  0  0  0
   -1.4665   -0.6230   -0.0344 C   0  0  0  0  0  0  0  0  0  0  0  0
   -2.6883   -1.2710   -0.0050 N   0  0  0  0  0  0  0  0  0  0  0  0
   -3.9648   -0.7354   -0.5444 C   0  0  1  0  0  0  0  0  0  0  0  0
   -4.9775   -0.4779    0.5924 C   0  0  0  0  0  0  0  0  0  0  0  0
   -5.1645   -1.6428    1.4140 O   0  0  0  0  0  0  0  0  0  0  0  0
   -3.9179   -2.0299    2.0066 C   0  0  0  0  0  0  0  0  0  0  0  0
   -2.8760   -2.3935    0.9367 C   0  0  0  0  0  0  0  0  0  0  0  0
   -3.8659    0.4828   -1.4553 C   0  0  0  0  0  0  0  0  0  0  0  0
    2.2487   -1.4040   -0.0367 C   0  0  0  0  0  0  0  0  0  0  0  0
    2.9159   -2.1333   -1.5872 S   0  0  1  0  0  0  0  0  0  0  0  0
    2.6770   -2.1139    1.2255 C   0  0  0  0  0  0  0  0  0  0  0  0
    3.3471   -0.8251    0.8430 C   0  0  0  0  0  0  0  0  0  0  0  0
    2.9953   -0.7511   -2.7009 C   0  0  0  0  0  0  0  0  0  0  0  0
    4.2838   -2.5436   -1.3299 O   0  0  0  0  0  0  0  0  0  0  0  0
    1.8328   -3.0992   -2.1042 N   0  0  0  0  0  0  0  0  0  0  0  0
   -0.1047    2.7578   -0.0867 C   0  0  0  0  0  0  0  0  0  0  0  0
   -1.0601    3.5685    0.5519 C   0  0  0  0  0  0  0  0  0  0  0  0
   -0.8412    4.9357    0.6531 C   0  0  0  0  0  0  0  0  0  0  0  0
    0.2322    5.6037    0.1775 N   0  0  0  0  0  0  0  0  0  0  0  0
    1.1143    4.8033   -0.4427 C   0  0  0  0  0  0  0  0  0  0  0  0
    1.0335    3.4251   -0.6179 C   0  0  0  0  0  0  0  0  0  0  0  0
    2.2844    5.2402   -0.9945 N   0  0  0  0  0  0  0  0  0  0  0  0
    2.9739    4.1863   -1.5349 C   0  0  0  0  0  0  0  0  0  0  0  0
    2.2166    3.0541   -1.3307 C   0  0  0  0  0  0  0  0  0  0  0  0
   -0.3065   -2.4479   -0.0611 H   0  0  0  0  0  0  0  0  0  0  0  0
   -4.3744   -1.5501   -1.1580 H   0  0  0  0  0  0  0  0  0  0  0  0
   -4.6685    0.3592    1.2289 H   0  0  0  0  0  0  0  0  0  0  0  0
   -5.9573   -0.2296    0.1690 H   0  0  0  0  0  0  0  0  0  0  0  0
   -3.5603   -1.2167    2.6493 H   0  0  0  0  0  0  0  0  0  0  0  0
   -4.1112   -2.8983    2.6447 H   0  0  0  0  0  0  0  0  0  0  0  0
   -3.2298   -3.2588    0.3637 H   0  0  0  0  0  0  0  0  0  0  0  0
   -1.9538   -2.6906    1.4475 H   0  0  0  0  0  0  0  0  0  0  0  0
   -3.0985    0.3542   -2.2246 H   0  0  0  0  0  0  0  0  0  0  0  0
   -4.8212    0.6472   -1.9671 H   0  0  0  0  0  0  0  0  0  0  0  0
   -3.6545    1.3978   -0.8921 H   0  0  0  0  0  0  0  0  0  0  0  0
    2.0156   -2.0870    2.0850 H   0  0  0  0  0  0  0  0  0  0  0  0
    3.2484   -3.0307    1.1429 H   0  0  0  0  0  0  0  0  0  0  0  0
    4.3822   -0.8683    0.5241 H   0  0  0  0  0  0  0  0  0  0  0  0
    3.1209    0.0668    1.4195 H   0  0  0  0  0  0  0  0  0  0  0  0
    3.6556    0.0057   -2.2728 H   0  0  0  0  0  0  0  0  0  0  0  0
    3.4106   -1.0987   -3.6497 H   0  0  0  0  0  0  0  0  0  0  0  0
    1.9951   -0.3445   -2.8583 H   0  0  0  0  0  0  0  0  0  0  0  0
    2.1296   -3.5346   -2.9804 H   0  0  0  0  0  0  0  0  0  0  0  0
   -1.9471    3.1259    0.9910 H   0  0  0  0  0  0  0  0  0  0  0  0
   -1.5633    5.5595    1.1746 H   0  0  0  0  0  0  0  0  0  0  0  0
    2.5819    6.2049   -0.9783 H   0  0  0  0  0  0  0  0  0  0  0  0
    3.9352    4.3275   -2.0121 H   0  0  0  0  0  0  0  0  0  0  0  0
    2.4924    2.0582   -1.6451 H   0  0  0  0  0  0  0  0  0  0  0  0
  1  2  2  0  0  0  0
  1 30  1  0  0  0  0
  2  3  1  0  0  0  0
  2 14  1  0  0  0  0
  3  4  2  0  0  0  0
  4  5  1  0  0  0  0
  4 21  1  0  0  0  0
  5  6  2  0  0  0  0
  6  1  1  0  0  0  0
  6  7  1  0  0  0  0
  7  8  1  0  0  0  0
  8  9  1  0  0  0  0
  8 13  1  0  0  0  0
  8 31  1  6  0  0  0
  9 10  1  0  0  0  0
  9 32  1  0  0  0  0
  9 33  1  0  0  0  0
 10 11  1  0  0  0  0
 11 12  1  0  0  0  0
 11 34  1  0  0  0  0
 11 35  1  0  0  0  0
 12  7  1  0  0  0  0
 12 36  1  0  0  0  0
 12 37  1  0  0  0  0
 13 38  1  0  0  0  0
 13 39  1  0  0  0  0
 13 40  1  0  0  0  0
 14 16  1  0  0  0  0
 15 14  1  0  0  0  0
 15 18  1  0  0  0  0
 15 19  2  1  0  0  0
 15 20  2  0  0  0  0
 16 17  1  0  0  0  0
 16 41  1  0  0  0  0
 16 42  1  0  0  0  0
 17 14  1  0  0  0  0
 17 43  1  0  0  0  0
 17 44  1  0  0  0  0
 18 45  1  0  0  0  0
 18 46  1  0  0  0  0
 18 47  1  0  0  0  0
 20 48  1  0  0  0  0
 21 22  2  0  0  0  0
 22 23  1  0  0  0  0
 22 49  1  0  0  0  0
 23 24  2  0  0  0  0
 23 50  1  0  0  0  0
 24 25  1  0  0  0  0
 25 26  2  0  0  0  0
 25 27  1  0  0  0  0
 26 21  1  0  0  0  0
 27 28  1  0  0  0  0
 27 51  1  0  0  0  0
 28 29  2  0  0  0  0
 28 52  1  0  0  0  0
 29 26  1  0  0  0  0
 29 53  1  0  0  0  0
M  END
>  <Mol_ID>
2203

>  <Formula>
C20H24N6O2S

>  <MolWeight>
412.50856

>  <Cat>
S7693

>  <Name>
Ceralasertib (AZD6738)

>  <Synonyms>
N/A

>  <Target>
ATM/ATR

>  <Form>
free base

>  <CAS>
1352226-88-0

>  <URL>
http://selleckchem.com/products/azd6738.html

$$$$
