AZD7762.cdx
 OpenBabel08302520013D

 44 46  0  0  0  0  0  0  0  0999 V2000
    1.1112   -3.6796   -2.5763 C   0  0  0  0  0  0  0  0  0  0  0  0
    2.1897   -3.8882   -3.4183 C   0  0  0  0  0  0  0  0  0  0  0  0
    3.2004   -4.7613   -3.0194 C   0  0  0  0  0  0  0  0  0  0  0  0
    3.1150   -5.4162   -1.7811 C   0  0  0  0  0  0  0  0  0  0  0  0
    2.0198   -5.2148   -0.9171 C   0  0  0  0  0  0  0  0  0  0  0  0
    1.0184   -4.3270   -1.3501 C   0  0  0  0  0  0  0  0  0  0  0  0
    0.1311   -2.8464   -2.9538 F   0  0  0  0  0  0  0  0  0  0  0  0
    1.9050   -5.9505    0.3689 C   0  0  0  0  0  0  0  0  0  0  0  0
    0.6926   -5.5223    1.5181 S   0  0  0  0  0  0  0  0  0  0  0  0
    0.9742   -6.9065    2.4648 C   0  0  0  0  0  0  0  0  0  0  0  0
    2.1727   -7.5090    2.1303 C   0  0  0  0  0  0  0  0  0  0  0  0
    2.6491   -7.0119    0.8677 C   0  0  0  0  0  0  0  0  0  0  0  0
    2.8242   -8.5236    2.8345 N   0  0  0  0  0  0  0  0  0  0  0  0
    2.6904   -8.7483    4.1796 C   0  0  0  0  0  0  0  0  0  0  0  0
    3.3699   -9.8489    4.6100 N   0  0  0  0  0  0  0  0  0  0  0  0
    2.0675   -8.0782    4.9940 O   0  0  0  0  0  0  0  0  0  0  0  0
   -0.0519   -7.3612    3.3926 C   0  0  0  0  0  0  0  0  0  0  0  0
   -0.6275   -6.3815    4.1818 N   0  0  0  0  0  0  0  0  0  0  0  0
   -0.3938   -8.5393    3.4475 O   0  0  0  0  0  0  0  0  0  0  0  0
   -1.2185   -6.6649    5.4943 C   0  0  2  0  0  0  0  0  0  0  0  0
   -2.1041   -7.9365    5.5814 C   0  0  0  0  0  0  0  0  0  0  0  0
   -2.7955   -8.0753    6.8735 N   0  0  0  0  0  0  0  0  0  0  0  0
   -3.6444   -6.9213    7.1402 C   0  0  0  0  0  0  0  0  0  0  0  0
   -2.7953   -5.6603    7.2301 C   0  0  0  0  0  0  0  0  0  0  0  0
   -2.0108   -5.4231    5.9436 C   0  0  0  0  0  0  0  0  0  0  0  0
    2.2347   -3.3773   -4.3750 H   0  0  0  0  0  0  0  0  0  0  0  0
    4.0483   -4.9379   -3.6733 H   0  0  0  0  0  0  0  0  0  0  0  0
    3.9231   -6.0913   -1.5103 H   0  0  0  0  0  0  0  0  0  0  0  0
    0.1329   -4.1265   -0.7572 H   0  0  0  0  0  0  0  0  0  0  0  0
    3.5032   -7.4291    0.3506 H   0  0  0  0  0  0  0  0  0  0  0  0
    3.5712   -9.0062    2.3645 H   0  0  0  0  0  0  0  0  0  0  0  0
    3.2788   -9.9784    5.6091 H   0  0  0  0  0  0  0  0  0  0  0  0
    4.3088   -9.9805    4.2667 H   0  0  0  0  0  0  0  0  0  0  0  0
   -0.1742   -5.4813    4.1000 H   0  0  0  0  0  0  0  0  0  0  0  0
   -0.3724   -6.8014    6.1763 H   0  0  0  0  0  0  0  0  0  0  0  0
   -2.8356   -7.9510    4.7636 H   0  0  0  0  0  0  0  0  0  0  0  0
   -1.4798   -8.8267    5.4728 H   0  0  0  0  0  0  0  0  0  0  0  0
   -3.3571   -8.9255    6.8521 H   0  0  0  0  0  0  0  0  0  0  0  0
   -4.1683   -7.0749    8.0897 H   0  0  0  0  0  0  0  0  0  0  0  0
   -4.4102   -6.8208    6.3616 H   0  0  0  0  0  0  0  0  0  0  0  0
   -2.0987   -5.7416    8.0743 H   0  0  0  0  0  0  0  0  0  0  0  0
   -3.4388   -4.7966    7.4311 H   0  0  0  0  0  0  0  0  0  0  0  0
   -1.3265   -4.5767    6.0836 H   0  0  0  0  0  0  0  0  0  0  0  0
   -2.7099   -5.1269    5.1502 H   0  0  0  0  0  0  0  0  0  0  0  0
  1  2  2  0  0  0  0
  1  7  1  0  0  0  0
  2  3  1  0  0  0  0
  2 26  1  0  0  0  0
  3  4  2  0  0  0  0
  3 27  1  0  0  0  0
  4  5  1  0  0  0  0
  4 28  1  0  0  0  0
  5  6  2  0  0  0  0
  5  8  1  0  0  0  0
  6  1  1  0  0  0  0
  6 29  1  0  0  0  0
  8  9  1  0  0  0  0
  9 10  1  0  0  0  0
 10 11  2  0  0  0  0
 10 17  1  0  0  0  0
 11 12  1  0  0  0  0
 11 13  1  0  0  0  0
 12  8  2  0  0  0  0
 12 30  1  0  0  0  0
 13 14  1  0  0  0  0
 13 31  1  0  0  0  0
 14 15  1  0  0  0  0
 14 16  2  0  0  0  0
 15 32  1  0  0  0  0
 15 33  1  0  0  0  0
 17 18  1  0  0  0  0
 17 19  2  0  0  0  0
 18 34  1  0  0  0  0
 20 21  1  0  0  0  0
 20 35  1  1  0  0  0
 20 18  1  0  0  0  0
 21 22  1  0  0  0  0
 21 36  1  0  0  0  0
 21 37  1  0  0  0  0
 22 23  1  0  0  0  0
 22 38  1  0  0  0  0
 23 24  1  0  0  0  0
 23 39  1  0  0  0  0
 23 40  1  0  0  0  0
 24 25  1  0  0  0  0
 24 41  1  0  0  0  0
 24 42  1  0  0  0  0
 25 20  1  0  0  0  0
 25 43  1  0  0  0  0
 25 44  1  0  0  0  0
M  END
>  <Mol_ID>
312

>  <Formula>
C17H19FN4O2S

>  <MolWeight>
362.4217632

>  <Cat>
S1532

>  <Name>
AZD7762

>  <Synonyms>
N/A

>  <Target>
Chk

>  <Form>
free base

>  <CAS>
860352-01-8

>  <URL>
http://selleckchem.com/products/AZD7762.html

$$$$
