AZD8330.cdx
 OpenBabel08302521323D

 42 43  0  0  0  0  0  0  0  0999 V2000
   -0.8950    0.9947   -0.9499 C   0  0  0  0  0  0  0  0  0  0  0  0
   -1.4117   -0.2828   -0.7548 C   0  0  0  0  0  0  0  0  0  0  0  0
   -0.5816   -1.3243   -0.3430 C   0  0  0  0  0  0  0  0  0  0  0  0
    0.7793   -1.0843   -0.1321 C   0  0  0  0  0  0  0  0  0  0  0  0
    1.3247    0.1950   -0.3349 C   0  0  0  0  0  0  0  0  0  0  0  0
    0.4614    1.2267   -0.7361 C   0  0  0  0  0  0  0  0  0  0  0  0
   -3.4299   -0.6392   -1.0906 I   0  0  0  0  0  0  0  0  0  0  0  0
    0.9208    2.4655   -0.9701 F   0  0  0  0  0  0  0  0  0  0  0  0
    2.7451    0.3331   -0.1800 N   0  0  0  0  0  0  0  0  0  0  0  0
    3.3996    1.5606   -0.3938 C   0  0  0  0  0  0  0  0  0  0  0  0
    3.5125    2.4745    0.6711 N   0  0  0  0  0  0  0  0  0  0  0  0
    4.1739    3.7007    0.5776 C   0  0  0  0  0  0  0  0  0  0  0  0
    4.7809    4.0328   -0.7395 C   0  0  0  0  0  0  0  0  0  0  0  0
    4.6439    3.1644   -1.7481 C   0  0  0  0  0  0  0  0  0  0  0  0
    3.9853    1.8808   -1.5787 C   0  0  0  0  0  0  0  0  0  0  0  0
    3.9030    0.9193   -2.7374 C   0  0  0  0  0  0  0  0  0  0  0  0
    5.4882    5.3410   -0.9057 C   0  0  0  0  0  0  0  0  0  0  0  0
    4.2712    4.4982    1.5086 O   0  0  0  0  0  0  0  0  0  0  0  0
    2.8762    2.2098    1.9537 C   0  0  0  0  0  0  0  0  0  0  0  0
    4.9585    0.9693   -3.6197 N   0  0  0  0  0  0  0  0  0  0  0  0
    4.7974    0.1756   -4.7792 O   0  0  0  0  0  0  0  0  0  0  0  0
    5.6437   -0.9791   -4.6796 C   0  0  0  0  0  0  0  0  0  0  0  0
    5.1525   -1.9788   -3.6313 C   0  0  0  0  0  0  0  0  0  0  0  0
    3.8115   -2.3788   -3.8949 O   0  0  0  0  0  0  0  0  0  0  0  0
    3.0099    0.0792   -2.8382 O   0  0  0  0  0  0  0  0  0  0  0  0
   -1.5171    1.8190   -1.2825 H   0  0  0  0  0  0  0  0  0  0  0  0
   -0.9718   -2.3284   -0.1946 H   0  0  0  0  0  0  0  0  0  0  0  0
    1.4206   -1.9087    0.1733 H   0  0  0  0  0  0  0  0  0  0  0  0
    3.1078   -0.3656   -0.8393 H   0  0  0  0  0  0  0  0  0  0  0  0
    5.0255    3.4411   -2.7230 H   0  0  0  0  0  0  0  0  0  0  0  0
    6.5702    5.1770   -0.9611 H   0  0  0  0  0  0  0  0  0  0  0  0
    5.1675    5.8385   -1.8275 H   0  0  0  0  0  0  0  0  0  0  0  0
    5.2969    6.0345   -0.0826 H   0  0  0  0  0  0  0  0  0  0  0  0
    3.5579    2.4796    2.7687 H   0  0  0  0  0  0  0  0  0  0  0  0
    1.9850    2.8418    2.0310 H   0  0  0  0  0  0  0  0  0  0  0  0
    2.5962    1.1639    2.0932 H   0  0  0  0  0  0  0  0  0  0  0  0
    5.5905    1.7523   -3.7091 H   0  0  0  0  0  0  0  0  0  0  0  0
    5.6317   -1.4521   -5.6663 H   0  0  0  0  0  0  0  0  0  0  0  0
    6.6713   -0.6618   -4.4685 H   0  0  0  0  0  0  0  0  0  0  0  0
    5.7845   -2.8708   -3.6344 H   0  0  0  0  0  0  0  0  0  0  0  0
    5.1832   -1.5543   -2.6227 H   0  0  0  0  0  0  0  0  0  0  0  0
    3.2697   -1.5616   -3.8113 H   0  0  0  0  0  0  0  0  0  0  0  0
  1  2  2  0  0  0  0
  1 26  1  0  0  0  0
  2  3  1  0  0  0  0
  2  7  1  0  0  0  0
  3  4  2  0  0  0  0
  3 27  1  0  0  0  0
  4  5  1  0  0  0  0
  4 28  1  0  0  0  0
  5  6  2  0  0  0  0
  5  9  1  0  0  0  0
  6  1  1  0  0  0  0
  6  8  1  0  0  0  0
  9 10  1  0  0  0  0
  9 29  1  0  0  0  0
 10 11  1  0  0  0  0
 11 12  1  0  0  0  0
 11 19  1  0  0  0  0
 12 13  1  0  0  0  0
 12 18  2  0  0  0  0
 13 14  2  0  0  0  0
 13 17  1  0  0  0  0
 14 15  1  0  0  0  0
 14 30  1  0  0  0  0
 15 10  2  0  0  0  0
 15 16  1  0  0  0  0
 16 20  1  0  0  0  0
 16 25  2  0  0  0  0
 17 31  1  0  0  0  0
 17 32  1  0  0  0  0
 17 33  1  0  0  0  0
 19 34  1  0  0  0  0
 19 35  1  0  0  0  0
 19 36  1  0  0  0  0
 20 21  1  0  0  0  0
 20 37  1  0  0  0  0
 21 22  1  0  0  0  0
 22 23  1  0  0  0  0
 22 38  1  0  0  0  0
 22 39  1  0  0  0  0
 23 24  1  0  0  0  0
 23 40  1  0  0  0  0
 23 41  1  0  0  0  0
 24 42  1  0  0  0  0
M  END
>  <Mol_ID>
609

>  <Formula>
C16H17FIN3O4

>  <MolWeight>
461.2267532

>  <Cat>
S2134

>  <Name>
AZD8330

>  <Synonyms>
ARRY704

>  <Target>
MEK

>  <Form>
free base

>  <CAS>
869357-68-6

>  <URL>
http://selleckchem.com/products/AZD8330(ARRY-424704).html

$$$$
