AZD 8055.cdx
 OpenBabel08302520143D

 65 69  0  0  0  0  0  0  0  0999 V2000
    1.5119   -0.0696   -0.7175 C   0  0  0  0  0  0  0  0  0  0  0  0
    0.9265   -1.2324   -0.1935 C   0  0  0  0  0  0  0  0  0  0  0  0
   -0.3734   -1.1853    0.3210 C   0  0  0  0  0  0  0  0  0  0  0  0
   -1.0811    0.0112    0.3694 C   0  0  0  0  0  0  0  0  0  0  0  0
   -0.4901    1.2078   -0.0577 C   0  0  0  0  0  0  0  0  0  0  0  0
    0.7769    1.1368   -0.6511 C   0  0  0  0  0  0  0  0  0  0  0  0
    2.9174    0.0352   -1.2483 C   0  0  0  0  0  0  0  0  0  0  0  0
    3.8772   -0.1541   -0.2185 O   0  0  0  0  0  0  0  0  0  0  0  0
    1.5139   -2.4470    0.0221 O   0  0  0  0  0  0  0  0  0  0  0  0
    2.3570   -2.9614   -0.9932 C   0  0  0  0  0  0  0  0  0  0  0  0
   -1.0867    2.5088    0.2735 C   0  0  0  0  0  0  0  0  0  0  0  0
   -0.8816    3.5467   -0.5799 N   0  0  0  0  0  0  0  0  0  0  0  0
   -1.2786    4.7876   -0.2414 C   0  0  0  0  0  0  0  0  0  0  0  0
   -1.8666    5.0247    0.9967 C   0  0  0  0  0  0  0  0  0  0  0  0
   -2.1432    3.9310    1.8330 C   0  0  0  0  0  0  0  0  0  0  0  0
   -1.7247    2.6705    1.4899 C   0  0  0  0  0  0  0  0  0  0  0  0
   -1.1181    5.7555   -1.1276 N   0  0  0  0  0  0  0  0  0  0  0  0
   -1.5219    6.9862   -0.8090 C   0  0  0  0  0  0  0  0  0  0  0  0
   -1.9898    7.3164    0.4083 N   0  0  0  0  0  0  0  0  0  0  0  0
   -2.1843    6.3535    1.3135 C   0  0  0  0  0  0  0  0  0  0  0  0
   -2.7869    6.6553    2.5264 N   0  0  0  0  0  0  0  0  0  0  0  0
   -3.7727    7.7431    2.7123 C   0  0  2  0  0  0  0  0  0  0  0  0
   -4.7659    7.2426    3.8044 C   0  0  0  0  0  0  0  0  0  0  0  0
   -4.1023    6.8973    5.0370 O   0  0  0  0  0  0  0  0  0  0  0  0
   -3.1163    5.8771    4.8128 C   0  0  0  0  0  0  0  0  0  0  0  0
   -2.0697    6.3516    3.7858 C   0  0  0  0  0  0  0  0  0  0  0  0
   -1.5741    7.9837   -1.7744 N   0  0  0  0  0  0  0  0  0  0  0  0
   -1.5431    7.6481   -3.2192 C   0  0  2  0  0  0  0  0  0  0  0  0
   -1.8884    8.9443   -4.0032 C   0  0  0  0  0  0  0  0  0  0  0  0
   -0.9879   10.0209   -3.6927 O   0  0  0  0  0  0  0  0  0  0  0  0
   -1.0407   10.3206   -2.2885 C   0  0  0  0  0  0  0  0  0  0  0  0
   -0.6621    9.0945   -1.4459 C   0  0  0  0  0  0  0  0  0  0  0  0
   -2.5597    6.5805   -3.6228 C   0  0  0  0  0  0  0  0  0  0  0  0
   -4.5767    8.1143    1.4691 C   0  0  0  0  0  0  0  0  0  0  0  0
   -0.8267   -2.0839    0.7345 H   0  0  0  0  0  0  0  0  0  0  0  0
   -2.0766    0.0053    0.8084 H   0  0  0  0  0  0  0  0  0  0  0  0
    1.2361    2.0649   -0.9971 H   0  0  0  0  0  0  0  0  0  0  0  0
    3.0920   -0.6713   -2.0627 H   0  0  0  0  0  0  0  0  0  0  0  0
    3.0998    1.0284   -1.6728 H   0  0  0  0  0  0  0  0  0  0  0  0
    3.4427    0.0602    0.6255 H   0  0  0  0  0  0  0  0  0  0  0  0
    1.9838   -2.7353   -1.9968 H   0  0  0  0  0  0  0  0  0  0  0  0
    3.3808   -2.6101   -0.8512 H   0  0  0  0  0  0  0  0  0  0  0  0
    2.3756   -4.0497   -0.8808 H   0  0  0  0  0  0  0  0  0  0  0  0
   -2.6673    4.0449    2.7710 H   0  0  0  0  0  0  0  0  0  0  0  0
   -1.8520    1.8545    2.1926 H   0  0  0  0  0  0  0  0  0  0  0  0
   -3.2528    8.6333    3.0898 H   0  0  0  0  0  0  0  0  0  0  0  0
   -5.4993    8.0191    4.0413 H   0  0  0  0  0  0  0  0  0  0  0  0
   -5.3181    6.3615    3.4493 H   0  0  0  0  0  0  0  0  0  0  0  0
   -2.6388    5.6460    5.7695 H   0  0  0  0  0  0  0  0  0  0  0  0
   -3.6312    4.9681    4.4773 H   0  0  0  0  0  0  0  0  0  0  0  0
   -1.5839    7.2628    4.1559 H   0  0  0  0  0  0  0  0  0  0  0  0
   -1.2823    5.5985    3.6758 H   0  0  0  0  0  0  0  0  0  0  0  0
   -0.5317    7.3250   -3.5001 H   0  0  0  0  0  0  0  0  0  0  0  0
   -1.8244    8.7689   -5.0821 H   0  0  0  0  0  0  0  0  0  0  0  0
   -2.9138    9.2737   -3.7854 H   0  0  0  0  0  0  0  0  0  0  0  0
   -0.3392   11.1391   -2.1000 H   0  0  0  0  0  0  0  0  0  0  0  0
   -2.0471   10.6754   -2.0351 H   0  0  0  0  0  0  0  0  0  0  0  0
    0.3688    8.7986   -1.6866 H   0  0  0  0  0  0  0  0  0  0  0  0
   -0.6982    9.3729   -0.3865 H   0  0  0  0  0  0  0  0  0  0  0  0
   -2.6743    6.5393   -4.7111 H   0  0  0  0  0  0  0  0  0  0  0  0
   -2.2510    5.5775   -3.3115 H   0  0  0  0  0  0  0  0  0  0  0  0
   -3.5487    6.7782   -3.1859 H   0  0  0  0  0  0  0  0  0  0  0  0
   -5.4206    8.7589    1.7343 H   0  0  0  0  0  0  0  0  0  0  0  0
   -3.9709    8.6833    0.7574 H   0  0  0  0  0  0  0  0  0  0  0  0
   -4.9687    7.2283    0.9610 H   0  0  0  0  0  0  0  0  0  0  0  0
  1  2  2  0  0  0  0
  1  7  1  0  0  0  0
  2  3  1  0  0  0  0
  2  9  1  0  0  0  0
  3  4  2  0  0  0  0
  3 35  1  0  0  0  0
  4  5  1  0  0  0  0
  4 36  1  0  0  0  0
  5  6  2  0  0  0  0
  5 11  1  0  0  0  0
  6  1  1  0  0  0  0
  6 37  1  0  0  0  0
  7  8  1  0  0  0  0
  7 38  1  0  0  0  0
  7 39  1  0  0  0  0
  8 40  1  0  0  0  0
  9 10  1  0  0  0  0
 10 41  1  0  0  0  0
 10 42  1  0  0  0  0
 10 43  1  0  0  0  0
 11 12  2  0  0  0  0
 12 13  1  0  0  0  0
 13 14  2  0  0  0  0
 13 17  1  0  0  0  0
 14 15  1  0  0  0  0
 15 16  2  0  0  0  0
 15 44  1  0  0  0  0
 16 11  1  0  0  0  0
 16 45  1  0  0  0  0
 17 18  2  0  0  0  0
 18 19  1  0  0  0  0
 18 27  1  0  0  0  0
 19 20  2  0  0  0  0
 20 14  1  0  0  0  0
 20 21  1  0  0  0  0
 21 22  1  0  0  0  0
 22 23  1  0  0  0  0
 22 34  1  0  0  0  0
 22 46  1  1  0  0  0
 23 24  1  0  0  0  0
 23 47  1  0  0  0  0
 23 48  1  0  0  0  0
 24 25  1  0  0  0  0
 25 26  1  0  0  0  0
 25 49  1  0  0  0  0
 25 50  1  0  0  0  0
 26 21  1  0  0  0  0
 26 51  1  0  0  0  0
 26 52  1  0  0  0  0
 27 28  1  0  0  0  0
 28 29  1  0  0  0  0
 28 33  1  0  0  0  0
 28 53  1  6  0  0  0
 29 30  1  0  0  0  0
 29 54  1  0  0  0  0
 29 55  1  0  0  0  0
 30 31  1  0  0  0  0
 31 32  1  0  0  0  0
 31 56  1  0  0  0  0
 31 57  1  0  0  0  0
 32 27  1  0  0  0  0
 32 58  1  0  0  0  0
 32 59  1  0  0  0  0
 33 60  1  0  0  0  0
 33 61  1  0  0  0  0
 33 62  1  0  0  0  0
 34 63  1  0  0  0  0
 34 64  1  0  0  0  0
 34 65  1  0  0  0  0
M  END
>  <Mol_ID>
320

>  <Formula>
C25H31N5O4

>  <MolWeight>
465.54474

>  <Cat>
S1555

>  <Name>
AZD8055

>  <Synonyms>
N/A

>  <Target>
Apoptosis related,Autophagy,mTOR

>  <Form>
free base

>  <CAS>
1009298-09-2

>  <URL>
http://selleckchem.com/products/AZD8055.html

$$$$
