AZD 2461.cdx
 OpenBabel08302519553D

 51 54  0  0  0  0  0  0  0  0999 V2000
    2.2042   -7.7242    0.9854 C   0  0  0  0  0  0  0  0  0  0  0  0
    1.0775   -7.4465    0.2156 C   0  0  0  0  0  0  0  0  0  0  0  0
    0.4904   -6.1839    0.2673 C   0  0  0  0  0  0  0  0  0  0  0  0
    1.0710   -5.1795    1.0462 C   0  0  0  0  0  0  0  0  0  0  0  0
    2.1198   -5.4914    1.9014 C   0  0  0  0  0  0  0  0  0  0  0  0
    2.7036   -6.7610    1.8648 C   0  0  0  0  0  0  0  0  0  0  0  0
    0.6957   -3.7491    0.9458 C   0  0  0  0  0  0  0  0  0  0  0  0
    1.0889   -2.8570    1.8069 N   0  0  0  0  0  0  0  0  0  0  0  0
    1.9278   -3.2596    2.8034 N   0  0  0  0  0  0  0  0  0  0  0  0
    2.5673   -4.4771    2.8688 C   0  0  0  0  0  0  0  0  0  0  0  0
   -0.1084   -3.2647   -0.2529 C   0  0  0  0  0  0  0  0  0  0  0  0
    0.5605   -3.5328   -1.5902 C   0  0  0  0  0  0  0  0  0  0  0  0
    1.7831   -2.9433   -1.9399 C   0  0  0  0  0  0  0  0  0  0  0  0
    2.3659   -3.1951   -3.1888 C   0  0  0  0  0  0  0  0  0  0  0  0
    1.7429   -4.0500   -4.0959 C   0  0  0  0  0  0  0  0  0  0  0  0
    0.5439   -4.6648   -3.7597 C   0  0  0  0  0  0  0  0  0  0  0  0
   -0.0393   -4.4029   -2.5094 C   0  0  0  0  0  0  0  0  0  0  0  0
   -0.0622   -5.6719   -4.6579 C   0  0  0  0  0  0  0  0  0  0  0  0
    2.3120   -4.2404   -5.2951 F   0  0  0  0  0  0  0  0  0  0  0  0
    3.4299   -4.7249    3.7027 O   0  0  0  0  0  0  0  0  0  0  0  0
   -1.4546   -5.7291   -4.7501 N   0  0  0  0  0  0  0  0  0  0  0  0
    0.6768   -6.4830   -5.2092 O   0  0  0  0  0  0  0  0  0  0  0  0
   -2.0637   -6.8923   -5.3906 C   0  0  0  0  0  0  0  0  0  0  0  0
   -2.6120   -6.5237   -6.7628 C   0  0  0  0  0  0  0  0  0  0  0  0
   -3.5492   -5.3160   -6.6642 C   0  0  0  0  0  0  0  0  0  0  0  0
   -2.9028   -4.1357   -5.9325 C   0  0  0  0  0  0  0  0  0  0  0  0
   -2.3345   -4.5682   -4.5908 C   0  0  0  0  0  0  0  0  0  0  0  0
   -4.0966   -4.9315   -7.9282 O   0  0  0  0  0  0  0  0  0  0  0  0
   -3.1584   -4.5496   -8.9249 C   0  0  0  0  0  0  0  0  0  0  0  0
    2.6893   -8.6929    0.9081 H   0  0  0  0  0  0  0  0  0  0  0  0
    0.6712   -8.2066   -0.4516 H   0  0  0  0  0  0  0  0  0  0  0  0
   -0.4025   -6.0065   -0.3187 H   0  0  0  0  0  0  0  0  0  0  0  0
    3.5512   -6.9935    2.5022 H   0  0  0  0  0  0  0  0  0  0  0  0
    2.2263   -2.5453    3.4611 H   0  0  0  0  0  0  0  0  0  0  0  0
   -1.1052   -3.7213   -0.2102 H   0  0  0  0  0  0  0  0  0  0  0  0
   -0.2706   -2.1827   -0.1658 H   0  0  0  0  0  0  0  0  0  0  0  0
    2.3001   -2.2903   -1.2382 H   0  0  0  0  0  0  0  0  0  0  0  0
    3.3100   -2.7331   -3.4635 H   0  0  0  0  0  0  0  0  0  0  0  0
   -0.9710   -4.9006   -2.2466 H   0  0  0  0  0  0  0  0  0  0  0  0
   -2.8669   -7.2469   -4.7348 H   0  0  0  0  0  0  0  0  0  0  0  0
   -1.3422   -7.7111   -5.4852 H   0  0  0  0  0  0  0  0  0  0  0  0
   -3.1449   -7.3751   -7.2016 H   0  0  0  0  0  0  0  0  0  0  0  0
   -1.7674   -6.3077   -7.4240 H   0  0  0  0  0  0  0  0  0  0  0  0
   -4.4161   -5.6248   -6.0647 H   0  0  0  0  0  0  0  0  0  0  0  0
   -2.0947   -3.7045   -6.5329 H   0  0  0  0  0  0  0  0  0  0  0  0
   -3.6374   -3.3350   -5.7867 H   0  0  0  0  0  0  0  0  0  0  0  0
   -1.8060   -3.7093   -4.1733 H   0  0  0  0  0  0  0  0  0  0  0  0
   -3.1294   -4.8471   -3.8908 H   0  0  0  0  0  0  0  0  0  0  0  0
   -2.5844   -3.6715   -8.6253 H   0  0  0  0  0  0  0  0  0  0  0  0
   -2.4933   -5.3742   -9.1862 H   0  0  0  0  0  0  0  0  0  0  0  0
   -3.7234   -4.2853   -9.8277 H   0  0  0  0  0  0  0  0  0  0  0  0
  1  2  2  0  0  0  0
  1 30  1  0  0  0  0
  2  3  1  0  0  0  0
  2 31  1  0  0  0  0
  3  4  2  0  0  0  0
  3 32  1  0  0  0  0
  4  5  1  0  0  0  0
  4  7  1  0  0  0  0
  5  6  2  0  0  0  0
  6  1  1  0  0  0  0
  6 33  1  0  0  0  0
  7  8  2  0  0  0  0
  7 11  1  0  0  0  0
  8  9  1  0  0  0  0
  9 10  1  0  0  0  0
  9 34  1  0  0  0  0
 10  5  1  0  0  0  0
 10 20  2  0  0  0  0
 11 12  1  0  0  0  0
 11 35  1  0  0  0  0
 11 36  1  0  0  0  0
 12 13  2  0  0  0  0
 13 14  1  0  0  0  0
 13 37  1  0  0  0  0
 14 15  2  0  0  0  0
 14 38  1  0  0  0  0
 15 16  1  0  0  0  0
 15 19  1  0  0  0  0
 16 17  2  0  0  0  0
 16 18  1  0  0  0  0
 17 12  1  0  0  0  0
 17 39  1  0  0  0  0
 18 21  1  0  0  0  0
 18 22  2  0  0  0  0
 21 23  1  0  0  0  0
 23 24  1  0  0  0  0
 23 40  1  0  0  0  0
 23 41  1  0  0  0  0
 24 25  1  0  0  0  0
 24 42  1  0  0  0  0
 24 43  1  0  0  0  0
 25 26  1  0  0  0  0
 25 28  1  0  0  0  0
 25 44  1  0  0  0  0
 26 27  1  0  0  0  0
 26 45  1  0  0  0  0
 26 46  1  0  0  0  0
 27 21  1  0  0  0  0
 27 47  1  0  0  0  0
 27 48  1  0  0  0  0
 28 29  1  0  0  0  0
 29 49  1  0  0  0  0
 29 50  1  0  0  0  0
 29 51  1  0  0  0  0
M  END
>  <Mol_ID>
2147

>  <Formula>
C22H22FN3O3

>  <MolWeight>
395.4267832

>  <Cat>
S7029

>  <Name>
AZD2461

>  <Synonyms>
N/A

>  <Target>
PARP

>  <Form>
free base

>  <CAS>
1174043-16-3

>  <URL>
http://selleckchem.com/products/azd2461.html

$$$$
