AZD 6482.cdx
 OpenBabel08302521593D

 54 57  0  0  0  0  0  0  0  0999 V2000
   -1.2732   -0.0519    6.1263 C   0  0  0  0  0  0  0  0  0  0  0  0
   -0.7410   -1.1875    5.3186 C   0  0  0  0  0  0  0  0  0  0  0  0
    0.4825   -1.0436    4.6200 C   0  0  0  0  0  0  0  0  0  0  0  0
    0.9316   -2.1677    3.9034 C   0  0  0  0  0  0  0  0  0  0  0  0
    0.2409   -3.3867    3.9179 C   0  0  0  0  0  0  0  0  0  0  0  0
   -0.9704   -3.4947    4.5863 C   0  0  0  0  0  0  0  0  0  0  0  0
   -1.4774   -2.3888    5.2611 C   0  0  0  0  0  0  0  0  0  0  0  0
   -1.0950    1.1222    5.8445 O   0  0  0  0  0  0  0  0  0  0  0  0
   -1.9279   -0.4401    7.2440 O   0  0  0  0  0  0  0  0  0  0  0  0
    1.2230    0.1286    4.7170 N   0  0  0  0  0  0  0  0  0  0  0  0
    2.5434    0.4316    4.1444 C   0  0  2  0  0  0  0  0  0  0  0  0
    3.5718   -0.5564    4.7218 C   0  0  0  0  0  0  0  0  0  0  0  0
    3.9283    2.5566    5.0622 C   0  0  0  0  0  0  0  0  0  0  0  0
    4.8328    1.7968    5.5974 N   0  0  0  0  0  0  0  0  0  0  0  0
    5.8047    2.3131    6.4188 C   0  0  0  0  0  0  0  0  0  0  0  0
    5.8993    3.6394    6.5957 C   0  0  0  0  0  0  0  0  0  0  0  0
    4.9621    4.5421    5.9248 C   0  0  0  0  0  0  0  0  0  0  0  0
    3.9589    3.9463    5.1891 N   0  0  0  0  0  0  0  0  0  0  0  0
    2.7818    1.9534    4.2634 C   0  0  0  0  0  0  0  0  0  0  0  0
    1.9302    2.8265    3.6787 C   0  0  0  0  0  0  0  0  0  0  0  0
    2.0518    4.2603    3.8025 C   0  0  0  0  0  0  0  0  0  0  0  0
    3.0382    4.7558    4.5550 C   0  0  0  0  0  0  0  0  0  0  0  0
    5.1258    5.7590    6.0675 O   0  0  0  0  0  0  0  0  0  0  0  0
    6.8921   -0.9679    7.5826 C   0  0  0  0  0  0  0  0  0  0  0  0
    7.0606    0.1342    6.5307 C   0  0  0  0  0  0  0  0  0  0  0  0
    6.6692    1.4473    7.0844 N   0  0  0  0  0  0  0  0  0  0  0  0
    7.3492    1.7416    8.3621 C   0  0  0  0  0  0  0  0  0  0  0  0
    7.1898    0.5655    9.3404 C   0  0  0  0  0  0  0  0  0  0  0  0
    7.6447   -0.6715    8.7717 O   0  0  0  0  0  0  0  0  0  0  0  0
    1.0605    5.1465    3.1082 C   0  0  0  0  0  0  0  0  0  0  0  0
    1.8574   -2.1345    3.3353 H   0  0  0  0  0  0  0  0  0  0  0  0
    0.6545   -4.2490    3.3989 H   0  0  0  0  0  0  0  0  0  0  0  0
   -1.5205   -4.4328    4.5731 H   0  0  0  0  0  0  0  0  0  0  0  0
   -2.4532   -2.4714    5.7327 H   0  0  0  0  0  0  0  0  0  0  0  0
   -1.8016   -1.3773    7.4814 H   0  0  0  0  0  0  0  0  0  0  0  0
    0.7604    0.9014    5.2048 H   0  0  0  0  0  0  0  0  0  0  0  0
    2.4888    0.2284    3.0638 H   0  0  0  0  0  0  0  0  0  0  0  0
    3.1285   -1.5066    5.0317 H   0  0  0  0  0  0  0  0  0  0  0  0
    4.3313   -0.7917    3.9691 H   0  0  0  0  0  0  0  0  0  0  0  0
    4.0563   -0.2231    5.6333 H   0  0  0  0  0  0  0  0  0  0  0  0
    6.6539    4.1097    7.2062 H   0  0  0  0  0  0  0  0  0  0  0  0
    1.0714    2.4548    3.1162 H   0  0  0  0  0  0  0  0  0  0  0  0
    3.1591    5.8285    4.6949 H   0  0  0  0  0  0  0  0  0  0  0  0
    5.8378   -1.1054    7.8512 H   0  0  0  0  0  0  0  0  0  0  0  0
    7.2643   -1.9196    7.1898 H   0  0  0  0  0  0  0  0  0  0  0  0
    8.1181    0.1964    6.2415 H   0  0  0  0  0  0  0  0  0  0  0  0
    6.4965   -0.1255    5.6288 H   0  0  0  0  0  0  0  0  0  0  0  0
    8.4108    1.9183    8.1569 H   0  0  0  0  0  0  0  0  0  0  0  0
    6.9401    2.6351    8.8454 H   0  0  0  0  0  0  0  0  0  0  0  0
    7.7819    0.7543   10.2412 H   0  0  0  0  0  0  0  0  0  0  0  0
    6.1437    0.4500    9.6485 H   0  0  0  0  0  0  0  0  0  0  0  0
    1.0880    4.9819    2.0267 H   0  0  0  0  0  0  0  0  0  0  0  0
    0.0445    4.9580    3.4693 H   0  0  0  0  0  0  0  0  0  0  0  0
    1.2765    6.2083    3.2806 H   0  0  0  0  0  0  0  0  0  0  0  0
  1  2  1  0  0  0  0
  1  8  2  0  0  0  0
  1  9  1  0  0  0  0
  2  3  2  0  0  0  0
  2  7  1  0  0  0  0
  3  4  1  0  0  0  0
  3 10  1  0  0  0  0
  4  5  2  0  0  0  0
  4 31  1  0  0  0  0
  5  6  1  0  0  0  0
  5 32  1  0  0  0  0
  6  7  2  0  0  0  0
  6 33  1  0  0  0  0
  7 34  1  0  0  0  0
  9 35  1  0  0  0  0
 10 36  1  0  0  0  0
 11 19  1  0  0  0  0
 11 37  1  6  0  0  0
 11 12  1  0  0  0  0
 11 10  1  0  0  0  0
 12 38  1  0  0  0  0
 12 39  1  0  0  0  0
 12 40  1  0  0  0  0
 13 14  2  0  0  0  0
 13 18  1  0  0  0  0
 13 19  1  0  0  0  0
 14 15  1  0  0  0  0
 15 16  2  0  0  0  0
 15 26  1  0  0  0  0
 16 17  1  0  0  0  0
 16 41  1  0  0  0  0
 17 18  1  0  0  0  0
 17 23  2  0  0  0  0
 18 22  1  0  0  0  0
 19 20  2  0  0  0  0
 20 21  1  0  0  0  0
 20 42  1  0  0  0  0
 21 22  2  0  0  0  0
 21 30  1  0  0  0  0
 22 43  1  0  0  0  0
 24 25  1  0  0  0  0
 24 29  1  0  0  0  0
 24 44  1  0  0  0  0
 24 45  1  0  0  0  0
 25 26  1  0  0  0  0
 25 46  1  0  0  0  0
 25 47  1  0  0  0  0
 26 27  1  0  0  0  0
 27 28  1  0  0  0  0
 27 48  1  0  0  0  0
 27 49  1  0  0  0  0
 28 29  1  0  0  0  0
 28 50  1  0  0  0  0
 28 51  1  0  0  0  0
 30 52  1  0  0  0  0
 30 53  1  0  0  0  0
 30 54  1  0  0  0  0
M  END
>  <Mol_ID>
1004

>  <Formula>
C22H24N4O4

>  <MolWeight>
408.45036

>  <Cat>
S1462

>  <Name>
AZD6482

>  <Synonyms>
KIN-193

>  <Target>
PI3K

>  <Form>
free base

>  <CAS>
1173900-33-8

>  <URL>
http://selleckchem.com/products/azd6482.html

$$$$
