Azelastine hydrochloride.cdx
 OpenBabel08302520143D

 51 54  0  0  0  0  0  0  0  0999 V2000
   -2.5594    0.7845   -0.2105 C   0  0  0  0  0  0  0  0  0  0  0  0
   -2.5567   -0.5783   -0.5060 C   0  0  0  0  0  0  0  0  0  0  0  0
   -1.3554   -1.2941   -0.5253 C   0  0  0  0  0  0  0  0  0  0  0  0
   -0.1499   -0.6416   -0.2438 C   0  0  0  0  0  0  0  0  0  0  0  0
   -0.1502    0.7290   -0.0205 C   0  0  0  0  0  0  0  0  0  0  0  0
   -1.3542    1.4440    0.0178 C   0  0  0  0  0  0  0  0  0  0  0  0
    1.1536   -1.3359   -0.1342 C   0  0  0  0  0  0  0  0  0  0  0  0
    2.2886   -0.6976   -0.0907 N   0  0  0  0  0  0  0  0  0  0  0  0
    2.2823    0.6822   -0.0822 N   0  0  0  0  0  0  0  0  0  0  0  0
    1.1316    1.4431    0.1072 C   0  0  0  0  0  0  0  0  0  0  0  0
    1.1174    2.6540    0.3153 O   0  0  0  0  0  0  0  0  0  0  0  0
    3.5917    1.3650   -0.1000 C   0  0  3  0  0  0  0  0  0  0  0  0
    1.1802   -2.8537    0.0187 C   0  0  0  0  0  0  0  0  0  0  0  0
    1.2660   -3.6500   -1.2648 C   0  0  0  0  0  0  0  0  0  0  0  0
    1.9482   -3.1758   -2.3898 C   0  0  0  0  0  0  0  0  0  0  0  0
    2.0444   -3.9565   -3.5460 C   0  0  0  0  0  0  0  0  0  0  0  0
    1.4804   -5.2298   -3.5821 C   0  0  0  0  0  0  0  0  0  0  0  0
    0.8294   -5.7294   -2.4574 C   0  0  0  0  0  0  0  0  0  0  0  0
    0.7267   -4.9484   -1.3046 C   0  0  0  0  0  0  0  0  0  0  0  0
    4.4148    0.9575   -1.3311 C   0  0  0  0  0  0  0  0  0  0  0  0
    5.5113    1.9803   -1.6497 C   0  0  0  0  0  0  0  0  0  0  0  0
    6.7832    1.8315   -0.9391 N   0  0  0  0  0  0  0  0  0  0  0  0
    6.7229    1.3341    0.4345 C   0  0  0  0  0  0  0  0  0  0  0  0
    5.6438    1.9364    1.3359 C   0  0  0  0  0  0  0  0  0  0  0  0
    4.3117    1.1931    1.2403 C   0  0  0  0  0  0  0  0  0  0  0  0
    7.5721    3.0612   -1.0376 C   0  0  0  0  0  0  0  0  0  0  0  0
   -3.4947    1.3385   -0.1778 H   0  0  0  0  0  0  0  0  0  0  0  0
   -3.4955   -1.0852   -0.7192 H   0  0  0  0  0  0  0  0  0  0  0  0
   -1.3871   -2.3512   -0.7742 H   0  0  0  0  0  0  0  0  0  0  0  0
   -1.3505    2.5146    0.2130 H   0  0  0  0  0  0  0  0  0  0  0  0
    3.3823    2.4377   -0.2049 H   0  0  0  0  0  0  0  0  0  0  0  0
    2.0370   -3.1225    0.6496 H   0  0  0  0  0  0  0  0  0  0  0  0
    0.2890   -3.1596    0.5804 H   0  0  0  0  0  0  0  0  0  0  0  0
    2.4285   -2.2004   -2.3824 H   0  0  0  0  0  0  0  0  0  0  0  0
    2.5731   -3.5726   -4.4140 H   0  0  0  0  0  0  0  0  0  0  0  0
    1.5622   -5.8354   -4.4800 H   0  0  0  0  0  0  0  0  0  0  0  0
    0.4111   -6.7329   -2.4749 H   0  0  0  0  0  0  0  0  0  0  0  0
    0.2322   -5.3680   -0.4302 H   0  0  0  0  0  0  0  0  0  0  0  0
    4.8239   -0.0546   -1.2308 H   0  0  0  0  0  0  0  0  0  0  0  0
    3.7416    0.9225   -2.1995 H   0  0  0  0  0  0  0  0  0  0  0  0
    5.7337    1.9026   -2.7216 H   0  0  0  0  0  0  0  0  0  0  0  0
    5.1030    2.9897   -1.5031 H   0  0  0  0  0  0  0  0  0  0  0  0
    6.6041    0.2435    0.4012 H   0  0  0  0  0  0  0  0  0  0  0  0
    7.7002    1.4810    0.9137 H   0  0  0  0  0  0  0  0  0  0  0  0
    5.9916    1.8669    2.3740 H   0  0  0  0  0  0  0  0  0  0  0  0
    5.5051    3.0054    1.1351 H   0  0  0  0  0  0  0  0  0  0  0  0
    3.6571    1.5618    2.0411 H   0  0  0  0  0  0  0  0  0  0  0  0
    4.4715    0.1283    1.4522 H   0  0  0  0  0  0  0  0  0  0  0  0
    7.1202    3.8872   -0.4772 H   0  0  0  0  0  0  0  0  0  0  0  0
    8.5876    2.9027   -0.6574 H   0  0  0  0  0  0  0  0  0  0  0  0
    7.6780    3.3734   -2.0827 H   0  0  0  0  0  0  0  0  0  0  0  0
  1  2  2  0  0  0  0
  1 27  1  0  0  0  0
  2  3  1  0  0  0  0
  2 28  1  0  0  0  0
  3  4  2  0  0  0  0
  3 29  1  0  0  0  0
  4  5  1  0  0  0  0
  4  7  1  0  0  0  0
  5  6  2  0  0  0  0
  6  1  1  0  0  0  0
  6 30  1  0  0  0  0
  7  8  2  0  0  0  0
  7 13  1  0  0  0  0
  8  9  1  0  0  0  0
  9 10  1  0  0  0  0
  9 12  1  0  0  0  0
 10  5  1  0  0  0  0
 10 11  2  0  0  0  0
 12 20  1  0  0  0  0
 12 31  1  0  0  0  0
 13 14  1  0  0  0  0
 13 32  1  0  0  0  0
 13 33  1  0  0  0  0
 14 15  2  0  0  0  0
 15 16  1  0  0  0  0
 15 34  1  0  0  0  0
 16 17  2  0  0  0  0
 16 35  1  0  0  0  0
 17 18  1  0  0  0  0
 17 36  1  0  0  0  0
 18 19  2  0  0  0  0
 18 37  1  0  0  0  0
 19 14  1  0  0  0  0
 19 38  1  0  0  0  0
 20 21  1  0  0  0  0
 20 39  1  0  0  0  0
 20 40  1  0  0  0  0
 21 22  1  0  0  0  0
 21 41  1  0  0  0  0
 21 42  1  0  0  0  0
 22 23  1  0  0  0  0
 22 26  1  0  0  0  0
 23 24  1  0  0  0  0
 23 43  1  0  0  0  0
 23 44  1  0  0  0  0
 24 25  1  0  0  0  0
 24 45  1  0  0  0  0
 24 46  1  0  0  0  0
 25 12  1  0  0  0  0
 25 47  1  0  0  0  0
 25 48  1  0  0  0  0
 26 49  1  0  0  0  0
 26 50  1  0  0  0  0
 26 51  1  0  0  0  0
M  END
>  <Mol_ID>
318

>  <Formula>
C22H25Cl2N3O

>  <MolWeight>
418.3594

>  <Cat>
S2552

>  <Name>
Azelastine HCl

>  <Synonyms>
N/A

>  <Target>
Histamine Receptor

>  <Form>
Hydrochloride

>  <CAS>
79307-93-0

>  <URL>
http://selleckchem.com/products/azelastine.html

$$$$
