Azomycin.cdx
 OpenBabel08302521313D

 11 11  0  0  0  0  0  0  0  0999 V2000
    2.7438    0.9191   -0.5741 O   0  0  0  0  0  0  0  0  0  0  0  0
    2.2653   -0.0856   -0.0227 N   0  3  0  0  0  0  0  0  0  0  0  0
    2.9125   -0.5051    1.1829 C   0  0  0  0  0  0  0  0  0  0  0  0
    1.2960   -0.7403   -0.4229 O   0  5  0  0  0  0  0  0  0  0  0  0
    2.5662   -1.5320    1.9289 N   0  0  0  0  0  0  0  0  0  0  0  0
    3.4727   -1.5247    2.9609 C   0  0  0  0  0  0  0  0  0  0  0  0
    4.3650   -0.4820    2.8297 C   0  0  0  0  0  0  0  0  0  0  0  0
    3.9966    0.1625    1.6780 N   0  0  0  0  0  0  0  0  0  0  0  0
    3.4345   -2.2718    3.7447 H   0  0  0  0  0  0  0  0  0  0  0  0
    5.2010   -0.1581    3.4343 H   0  0  0  0  0  0  0  0  0  0  0  0
    4.4280    0.9754    1.2561 H   0  0  0  0  0  0  0  0  0  0  0  0
  1  2  2  0  0  0  0
  2  3  1  0  0  0  0
  2  4  1  0  0  0  0
  3  5  2  0  0  0  0
  5  6  1  0  0  0  0
  6  7  2  0  0  0  0
  6  9  1  0  0  0  0
  7  8  1  0  0  0  0
  7 10  1  0  0  0  0
  8  3  1  0  0  0  0
  8 11  1  0  0  0  0
M  CHG  2   2   1   4  -1
M  END
>  <Mol_ID>
583

>  <Formula>
C3H3N3O2

>  <MolWeight>
113.07482

>  <Cat>
S2267

>  <Name>
Azomycin

>  <Synonyms>
2-Nitroimidazole

>  <Target>
Others

>  <Form>
free base

>  <CAS>
527-73-1

>  <URL>
http://selleckchem.com/products/Azomycin(2-Nitroimidazole).html

$$$$
