Azoramide.cdx
 OpenBabel08302520433D

 37 38  0  0  0  0  0  0  0  0999 V2000
   -0.6734    4.8933   -0.3157 C   0  0  0  0  0  0  0  0  0  0  0  0
   -1.9909    5.1858    0.0444 C   0  0  0  0  0  0  0  0  0  0  0  0
   -2.7006    4.3155    0.8700 C   0  0  0  0  0  0  0  0  0  0  0  0
   -2.1013    3.1408    1.3156 C   0  0  0  0  0  0  0  0  0  0  0  0
   -0.7855    2.8480    0.9575 C   0  0  0  0  0  0  0  0  0  0  0  0
   -0.0395    3.7314    0.1560 C   0  0  0  0  0  0  0  0  0  0  0  0
    1.3686    3.4832   -0.1838 C   0  0  0  0  0  0  0  0  0  0  0  0
    1.9713    3.9154   -1.2777 N   0  0  0  0  0  0  0  0  0  0  0  0
    3.3118    3.5633   -1.2708 C   0  0  0  0  0  0  0  0  0  0  0  0
    3.7132    2.8393   -0.1660 C   0  0  0  0  0  0  0  0  0  0  0  0
    2.4046    2.6378    0.9125 S   0  0  0  0  0  0  0  0  0  0  0  0
    4.1841    3.9609   -2.4175 C   0  0  0  0  0  0  0  0  0  0  0  0
    3.7403    5.2612   -3.0825 C   0  0  0  0  0  0  0  0  0  0  0  0
    4.6024    5.6252   -4.1934 N   0  0  0  0  0  0  0  0  0  0  0  0
    5.6970    6.4444   -4.0318 C   0  0  0  0  0  0  0  0  0  0  0  0
    6.4294    6.7609   -5.3184 C   0  0  0  0  0  0  0  0  0  0  0  0
    6.0642    6.8756   -2.9444 O   0  0  0  0  0  0  0  0  0  0  0  0
    5.5673    7.4848   -6.3518 C   0  0  0  0  0  0  0  0  0  0  0  0
    5.0402    8.8239   -5.8566 C   0  0  0  0  0  0  0  0  0  0  0  0
   -0.1297    5.5890   -0.9533 H   0  0  0  0  0  0  0  0  0  0  0  0
   -2.4598    6.0974   -0.3144 H   0  0  0  0  0  0  0  0  0  0  0  0
   -3.7191    4.5498    1.1621 H   0  0  0  0  0  0  0  0  0  0  0  0
   -2.6533    2.4525    1.9502 H   0  0  0  0  0  0  0  0  0  0  0  0
   -0.3492    1.9172    1.3103 H   0  0  0  0  0  0  0  0  0  0  0  0
    4.6905    2.4417    0.0615 H   0  0  0  0  0  0  0  0  0  0  0  0
    5.2201    4.0625   -2.0700 H   0  0  0  0  0  0  0  0  0  0  0  0
    4.1816    3.1505   -3.1575 H   0  0  0  0  0  0  0  0  0  0  0  0
    2.7293    5.1654   -3.4922 H   0  0  0  0  0  0  0  0  0  0  0  0
    3.7270    6.0799   -2.3531 H   0  0  0  0  0  0  0  0  0  0  0  0
    4.4435    5.1795   -5.0871 H   0  0  0  0  0  0  0  0  0  0  0  0
    7.3079    7.3691   -5.0716 H   0  0  0  0  0  0  0  0  0  0  0  0
    6.8005    5.8186   -5.7387 H   0  0  0  0  0  0  0  0  0  0  0  0
    6.1713    7.6555   -7.2508 H   0  0  0  0  0  0  0  0  0  0  0  0
    4.7211    6.8586   -6.6554 H   0  0  0  0  0  0  0  0  0  0  0  0
    5.8556    9.4687   -5.5146 H   0  0  0  0  0  0  0  0  0  0  0  0
    4.5134    9.3421   -6.6646 H   0  0  0  0  0  0  0  0  0  0  0  0
    4.3336    8.6929   -5.0307 H   0  0  0  0  0  0  0  0  0  0  0  0
  1  2  2  0  0  0  0
  1 20  1  0  0  0  0
  2  3  1  0  0  0  0
  2 21  1  0  0  0  0
  3  4  2  0  0  0  0
  3 22  1  0  0  0  0
  4  5  1  0  0  0  0
  4 23  1  0  0  0  0
  5  6  2  0  0  0  0
  5 24  1  0  0  0  0
  6  1  1  0  0  0  0
  6  7  1  0  0  0  0
  7  8  2  0  0  0  0
  8  9  1  0  0  0  0
  9 10  2  0  0  0  0
  9 12  1  0  0  0  0
 10 11  1  0  0  0  0
 10 25  1  0  0  0  0
 11  7  1  0  0  0  0
 12 13  1  0  0  0  0
 12 26  1  0  0  0  0
 12 27  1  0  0  0  0
 13 14  1  0  0  0  0
 13 28  1  0  0  0  0
 13 29  1  0  0  0  0
 14 15  1  0  0  0  0
 14 30  1  0  0  0  0
 15 16  1  0  0  0  0
 15 17  2  0  0  0  0
 16 18  1  0  0  0  0
 16 31  1  0  0  0  0
 16 32  1  0  0  0  0
 18 19  1  0  0  0  0
 18 33  1  0  0  0  0
 18 34  1  0  0  0  0
 19 35  1  0  0  0  0
 19 36  1  0  0  0  0
 19 37  1  0  0  0  0
M  END
>  <Mol_ID>
4158

>  <Formula>
C15H17ClN2OS

>  <MolWeight>
308.82628

>  <Cat>
S8304

>  <Name>
Azoramide

>  <Synonyms>
N/A

>  <Target>
PERK

>  <Form>
free base

>  <CAS>
932986-18-0

>  <URL>
http://selleckchem.com/products/azoramide.html

$$$$
