Bancroftinone
 OpenBabel08302521453D

 29 29  0  0  0  0  0  0  0  0999 V2000
    0.9050    0.0918    0.1170 O   0  0  0  0  0  0  0  0  0  0  0  0
   -0.0485   -0.9448    0.1639 C   0  0  0  0  0  0  0  0  0  0  0  0
    2.4522   -2.6471   -0.1048 C   0  0  0  0  0  0  0  0  0  0  0  0
    3.0336   -3.7680    0.7276 C   0  0  0  0  0  0  0  0  0  0  0  0
    1.5828   -2.8953   -0.9370 O   0  0  0  0  0  0  0  0  0  0  0  0
    2.0961    2.4638   -0.1294 C   0  0  0  0  0  0  0  0  0  0  0  0
    5.2635   -2.2323   -0.1998 O   0  0  0  0  0  0  0  0  0  0  0  0
    5.1250    2.3640   -0.2140 O   0  0  0  0  0  0  0  0  0  0  0  0
    4.7933    3.5552    0.4812 C   0  0  0  0  0  0  0  0  0  0  0  0
    2.2594   -0.0759    0.0240 C   0  0  0  0  0  0  0  0  0  0  0  0
    3.0154   -1.2678   -0.0091 C   0  0  0  0  0  0  0  0  0  0  0  0
    2.9252    1.2003   -0.0357 C   0  0  0  0  0  0  0  0  0  0  0  0
    4.4212   -1.1592   -0.0644 C   0  0  0  0  0  0  0  0  0  0  0  0
    4.3284    1.2620   -0.0486 C   0  0  0  0  0  0  0  0  0  0  0  0
    5.0619    0.0758   -0.0482 C   0  0  0  0  0  0  0  0  0  0  0  0
   -0.1596   -1.4272   -0.8105 H   0  0  0  0  0  0  0  0  0  0  0  0
    0.1492   -1.6489    0.9750 H   0  0  0  0  0  0  0  0  0  0  0  0
   -1.0161   -0.4752    0.3714 H   0  0  0  0  0  0  0  0  0  0  0  0
    2.2419   -4.2270    1.3244 H   0  0  0  0  0  0  0  0  0  0  0  0
    3.4525   -4.5177    0.0471 H   0  0  0  0  0  0  0  0  0  0  0  0
    3.8200   -3.4375    1.4087 H   0  0  0  0  0  0  0  0  0  0  0  0
    2.1914    3.0494    0.7882 H   0  0  0  0  0  0  0  0  0  0  0  0
    2.4143    3.0491   -0.9975 H   0  0  0  0  0  0  0  0  0  0  0  0
    1.0276    2.2862   -0.2710 H   0  0  0  0  0  0  0  0  0  0  0  0
    4.9749   -2.7373   -0.9805 H   0  0  0  0  0  0  0  0  0  0  0  0
    4.0956    4.1595   -0.1035 H   0  0  0  0  0  0  0  0  0  0  0  0
    4.4151    3.3620    1.4897 H   0  0  0  0  0  0  0  0  0  0  0  0
    5.7095    4.1466    0.5747 H   0  0  0  0  0  0  0  0  0  0  0  0
    6.1501    0.1154   -0.0919 H   0  0  0  0  0  0  0  0  0  0  0  0
  1  2  1  0  0  0  0
  1 10  1  0  0  0  0
  2 16  1  0  0  0  0
  2 17  1  0  0  0  0
  2 18  1  0  0  0  0
  3  4  1  0  0  0  0
  3  5  2  0  0  0  0
  3 11  1  0  0  0  0
  4 19  1  0  0  0  0
  4 20  1  0  0  0  0
  4 21  1  0  0  0  0
  6 12  1  0  0  0  0
  6 22  1  0  0  0  0
  6 23  1  0  0  0  0
  6 24  1  0  0  0  0
  7 13  1  0  0  0  0
  7 25  1  0  0  0  0
  8  9  1  0  0  0  0
  8 14  1  0  0  0  0
  9 26  1  0  0  0  0
  9 27  1  0  0  0  0
  9 28  1  0  0  0  0
 10 11  2  0  0  0  0
 10 12  1  0  0  0  0
 11 13  1  0  0  0  0
 12 14  2  0  0  0  0
 13 15  2  0  0  0  0
 14 15  1  0  0  0  0
 15 29  1  0  0  0  0
M  END
>  <Mol_ID>
9602

>  <Formula>
C11H14O4

>  <MolWeight>
210.22646

>  <Cat>
E2165

>  <Name>
Bancroftinone

>  <Synonyms>
NA

>  <Target>
NA

>  <Form>
Free Base

>  <CAS>
14964-98-8

>  <URL>
https://www.selleckchem.com/products/bancroftinone.html

$$$$
