BAR502
 OpenBabel08302521383D

 72 75  0  0  1  0  0  0  0  0999 V2000
    2.3216    6.2742   -5.7652 C   0  0  0  0  0  0  0  0  0  0  0  0
    2.3322    2.4735   -2.9676 O   0  0  0  0  0  0  0  0  0  0  0  0
    4.2212    6.9709   -0.5038 C   0  0  0  0  0  0  0  0  0  0  0  0
    0.2011    2.1720   -4.6832 C   0  0  0  0  0  0  0  0  0  0  0  0
   -0.8516    1.8882   -3.6094 C   0  0  0  0  0  0  0  0  0  0  0  0
    6.1303    4.2228    0.6653 C   0  0  1  0  0  0  0  0  0  0  0  0
    7.3699    3.8308   -0.1676 C   0  0  0  0  0  0  0  0  0  0  0  0
    6.4026    5.2705    1.7318 C   0  0  0  0  0  0  0  0  0  0  0  0
    8.3047    2.8917    0.6023 C   0  0  0  0  0  0  0  0  0  0  0  0
    9.3144    2.3888   -0.2682 O   0  0  0  0  0  0  0  0  0  0  0  0
    2.3815    2.9840   -9.3307 O   0  0  0  0  0  0  0  0  0  0  0  0
    3.6382    4.8977   -4.0237 C   0  0  1  0  0  0  0  0  0  0  0  0
    2.5024    4.8761   -2.9769 C   0  0  3  0  0  0  0  0  0  0  0  0
    3.0326    4.9228   -5.4933 C   0  0  3  0  0  0  0  0  0  0  0  0
    4.6112    6.0375   -3.6950 C   0  0  0  0  0  0  0  0  0  0  0  0
    2.9306    5.0626   -1.4935 C   0  0  3  0  0  0  0  0  0  0  0  0
    1.5760    3.6689   -3.1815 C   0  0  3  0  0  0  0  0  0  0  0  0
    2.0971    3.6449   -5.6387 C   0  0  3  0  0  0  0  0  0  0  0  0
    4.1550    4.8144   -6.5534 C   0  0  0  0  0  0  0  0  0  0  0  0
    5.3326    5.7527   -2.3712 C   0  0  0  0  0  0  0  0  0  0  0  0
    4.3980    5.5732   -1.1543 C   0  0  3  0  0  0  0  0  0  0  0  0
    2.6627    3.8717   -0.5408 C   0  0  0  0  0  0  0  0  0  0  0  0
    0.9556    3.5461   -4.5811 C   0  0  3  0  0  0  0  0  0  0  0  0
    1.6112    3.4127   -7.0820 C   0  0  0  0  0  0  0  0  0  0  0  0
    3.6236    4.5689   -7.9789 C   0  0  0  0  0  0  0  0  0  0  0  0
    4.8715    4.4092   -0.2007 C   0  0  3  0  0  0  0  0  0  0  0  0
    3.6078    4.0967    0.6084 C   0  0  0  0  0  0  0  0  0  0  0  0
    2.8148    3.2817   -8.0098 C   0  0  3  0  0  0  0  0  0  0  0  0
    3.0607    7.0540   -5.9993 H   0  0  0  0  0  0  0  0  0  0  0  0
    1.6372    6.2233   -6.6144 H   0  0  0  0  0  0  0  0  0  0  0  0
    1.7472    6.6570   -4.9210 H   0  0  0  0  0  0  0  0  0  0  0  0
    1.7667    1.8572   -2.4708 H   0  0  0  0  0  0  0  0  0  0  0  0
    3.7333    7.6534   -1.2171 H   0  0  0  0  0  0  0  0  0  0  0  0
    3.5798    6.9502    0.3828 H   0  0  0  0  0  0  0  0  0  0  0  0
    5.1713    7.4319   -0.2235 H   0  0  0  0  0  0  0  0  0  0  0  0
   -0.3030    2.0812   -5.6479 H   0  0  0  0  0  0  0  0  0  0  0  0
    0.9392    1.3614   -4.6479 H   0  0  0  0  0  0  0  0  0  0  0  0
   -1.7949    2.3840   -3.8493 H   0  0  0  0  0  0  0  0  0  0  0  0
   -1.0450    0.8091   -3.5659 H   0  0  0  0  0  0  0  0  0  0  0  0
   -0.5540    2.1801   -2.6020 H   0  0  0  0  0  0  0  0  0  0  0  0
    5.9128    3.3113    1.2443 H   0  0  0  0  0  0  0  0  0  0  0  0
    7.0675    3.2945   -1.0770 H   0  0  0  0  0  0  0  0  0  0  0  0
    7.9153    4.7143   -0.5142 H   0  0  0  0  0  0  0  0  0  0  0  0
    5.5821    5.2978    2.4577 H   0  0  0  0  0  0  0  0  0  0  0  0
    7.3058    5.0148    2.2992 H   0  0  0  0  0  0  0  0  0  0  0  0
    6.5388    6.2669    1.3128 H   0  0  0  0  0  0  0  0  0  0  0  0
    8.7925    3.4078    1.4323 H   0  0  0  0  0  0  0  0  0  0  0  0
    7.7598    2.0298    1.0138 H   0  0  0  0  0  0  0  0  0  0  0  0
    8.8795    1.7695   -0.8793 H   0  0  0  0  0  0  0  0  0  0  0  0
    2.1980    2.0261   -9.3539 H   0  0  0  0  0  0  0  0  0  0  0  0
    4.2051    3.9629   -3.9273 H   0  0  0  0  0  0  0  0  0  0  0  0
    1.8771    5.7634   -3.1613 H   0  0  0  0  0  0  0  0  0  0  0  0
    4.1018    7.0020   -3.6523 H   0  0  0  0  0  0  0  0  0  0  0  0
    5.3822    6.1176   -4.4794 H   0  0  0  0  0  0  0  0  0  0  0  0
    2.2295    5.8251   -1.1151 H   0  0  0  0  0  0  0  0  0  0  0  0
    0.7804    3.7329   -2.4338 H   0  0  0  0  0  0  0  0  0  0  0  0
    2.7521    2.7876   -5.4343 H   0  0  0  0  0  0  0  0  0  0  0  0
    4.8356    3.9740   -6.2896 H   0  0  0  0  0  0  0  0  0  0  0  0
    4.7895    5.7062   -6.5806 H   0  0  0  0  0  0  0  0  0  0  0  0
    6.0450    6.5683   -2.1846 H   0  0  0  0  0  0  0  0  0  0  0  0
    5.9537    4.8627   -2.5107 H   0  0  0  0  0  0  0  0  0  0  0  0
    1.6192    3.7787   -0.2357 H   0  0  0  0  0  0  0  0  0  0  0  0
    2.9713    2.9168   -0.9724 H   0  0  0  0  0  0  0  0  0  0  0  0
    0.2423    4.3673   -4.7396 H   0  0  0  0  0  0  0  0  0  0  0  0
    1.0317    2.4900   -7.1685 H   0  0  0  0  0  0  0  0  0  0  0  0
    0.9402    4.2142   -7.4132 H   0  0  0  0  0  0  0  0  0  0  0  0
    3.0053    5.4126   -8.3118 H   0  0  0  0  0  0  0  0  0  0  0  0
    4.4454    4.5117   -8.7016 H   0  0  0  0  0  0  0  0  0  0  0  0
    4.9826    3.5647   -0.9022 H   0  0  0  0  0  0  0  0  0  0  0  0
    3.6960    3.1959    1.2220 H   0  0  0  0  0  0  0  0  0  0  0  0
    3.2852    4.9248    1.2461 H   0  0  0  0  0  0  0  0  0  0  0  0
    3.4545    2.4501   -7.6835 H   0  0  0  0  0  0  0  0  0  0  0  0
  1 29  1  0  0  0  0
  1 30  1  0  0  0  0
  1 31  1  0  0  0  0
  2 32  1  0  0  0  0
  3 33  1  0  0  0  0
  3 34  1  0  0  0  0
  3 35  1  0  0  0  0
  4  5  1  0  0  0  0
  4 36  1  0  0  0  0
  4 37  1  0  0  0  0
  5 38  1  0  0  0  0
  5 39  1  0  0  0  0
  5 40  1  0  0  0  0
  6  7  1  0  0  0  0
  6  8  1  0  0  0  0
  6 41  1  1  0  0  0
  6 26  1  0  0  0  0
  7  9  1  0  0  0  0
  7 42  1  0  0  0  0
  7 43  1  0  0  0  0
  8 44  1  0  0  0  0
  8 45  1  0  0  0  0
  8 46  1  0  0  0  0
  9 10  1  0  0  0  0
  9 47  1  0  0  0  0
  9 48  1  0  0  0  0
 10 49  1  0  0  0  0
 11 50  1  0  0  0  0
 12 13  1  0  0  0  0
 12 14  1  0  0  0  0
 12 15  1  0  0  0  0
 12 51  1  1  0  0  0
 13 16  1  0  0  0  0
 13 17  1  0  0  0  0
 13 52  1  0  0  0  0
 14 18  1  0  0  0  0
 14 19  1  0  0  0  0
 14  1  1  0  0  0  0
 15 20  1  0  0  0  0
 15 53  1  0  0  0  0
 15 54  1  0  0  0  0
 16 21  1  0  0  0  0
 16 22  1  0  0  0  0
 16 55  1  0  0  0  0
 17 23  1  0  0  0  0
 17  2  1  0  0  0  0
 17 56  1  0  0  0  0
 18 23  1  0  0  0  0
 18 24  1  0  0  0  0
 18 57  1  0  0  0  0
 19 25  1  0  0  0  0
 19 58  1  0  0  0  0
 19 59  1  0  0  0  0
 20 21  1  0  0  0  0
 20 60  1  0  0  0  0
 20 61  1  0  0  0  0
 21 26  1  0  0  0  0
 21  3  1  0  0  0  0
 22 27  1  0  0  0  0
 22 62  1  0  0  0  0
 22 63  1  0  0  0  0
 23  4  1  0  0  0  0
 23 64  1  0  0  0  0
 24 28  1  0  0  0  0
 24 65  1  0  0  0  0
 24 66  1  0  0  0  0
 25 28  1  0  0  0  0
 25 67  1  0  0  0  0
 25 68  1  0  0  0  0
 26 27  1  0  0  0  0
 26 69  1  0  0  0  0
 27 70  1  0  0  0  0
 27 71  1  0  0  0  0
 28 11  1  0  0  0  0
 28 72  1  0  0  0  0
M  END
>  <Mol_ID>
7668

>  <Formula>
C25H44O3

>  <MolWeight>
392.61506

>  <Cat>
S0033

>  <Name>
BAR502

>  <Synonyms>
Compound 30

>  <Target>
FXR

>  <Form>
free base

>  <CAS>
1612191-86-2

>  <URL>
https://www.selleckchem.com/products/bar502.html

$$$$
