BAY 2416964
 OpenBabel08302521243D

 45 47  0  0  0  0  0  0  0  0999 V2000
   -5.4839   11.0858   11.8632 C   0  0  0  0  0  0  0  0  0  0  0  0
   -4.6106   11.3597   12.9103 C   0  0  0  0  0  0  0  0  0  0  0  0
   -3.2328   11.2562   12.7128 C   0  0  0  0  0  0  0  0  0  0  0  0
   -2.7226   10.8469   11.4741 C   0  0  0  0  0  0  0  0  0  0  0  0
   -3.5954   10.5398   10.4243 C   0  0  0  0  0  0  0  0  0  0  0  0
   -4.9788   10.6972   10.6220 C   0  0  0  0  0  0  0  0  0  0  0  0
   -3.0544    9.9671    9.1486 C   0  0  0  0  0  0  0  0  0  0  0  0
   -3.9323    8.9922    8.4858 C   0  0  0  0  0  0  0  0  0  0  0  0
   -3.5128    8.3938    7.3684 C   0  0  0  0  0  0  0  0  0  0  0  0
   -2.1910    8.7547    6.7953 C   0  0  0  0  0  0  0  0  0  0  0  0
   -1.4283    9.6725    7.5441 N   0  0  0  0  0  0  0  0  0  0  0  0
   -1.8756   10.2854    8.7089 N   0  0  0  0  0  0  0  0  0  0  0  0
   -1.8365    8.2279    5.7413 O   0  0  0  0  0  0  0  0  0  0  0  0
   -4.4324    7.4334    6.6879 C   0  0  0  0  0  0  0  0  0  0  0  0
   -5.2576    6.7030    7.5200 N   0  0  0  0  0  0  0  0  0  0  0  0
   -4.4777    7.3149    5.4696 O   0  0  0  0  0  0  0  0  0  0  0  0
   -6.3784    5.9216    7.0010 C   0  0  2  0  0  0  0  0  0  0  0  0
   -7.5594    6.8394    6.6385 C   0  0  0  0  0  0  0  0  0  0  0  0
   -8.0437    7.5314    7.7945 O   0  0  0  0  0  0  0  0  0  0  0  0
   -0.1150    9.9904    7.1624 C   0  0  0  0  0  0  0  0  0  0  0  0
    0.6579    9.3782    6.1975 C   0  0  0  0  0  0  0  0  0  0  0  0
    1.8783    9.9805    6.2196 N   0  0  0  0  0  0  0  0  0  0  0  0
    1.9629   10.9832    7.1122 N   0  0  0  0  0  0  0  0  0  0  0  0
    0.7505   10.9852    7.6842 C   0  0  0  0  0  0  0  0  0  0  0  0
    3.0300    9.5938    5.4408 C   0  0  0  0  0  0  0  0  0  0  0  0
   -6.7706    4.8785    8.0418 C   0  0  0  0  0  0  0  0  0  0  0  0
   -6.5584   11.1712   12.0090 H   0  0  0  0  0  0  0  0  0  0  0  0
   -5.0047   11.6609   13.8783 H   0  0  0  0  0  0  0  0  0  0  0  0
   -2.5551   11.4836   13.5327 H   0  0  0  0  0  0  0  0  0  0  0  0
   -1.6466   10.7454   11.3498 H   0  0  0  0  0  0  0  0  0  0  0  0
   -5.6935   10.5205    9.8225 H   0  0  0  0  0  0  0  0  0  0  0  0
   -4.8959    8.7797    8.9197 H   0  0  0  0  0  0  0  0  0  0  0  0
   -5.2715    6.8774    8.5129 H   0  0  0  0  0  0  0  0  0  0  0  0
   -6.0403    5.4115    6.0882 H   0  0  0  0  0  0  0  0  0  0  0  0
   -7.2610    7.5954    5.9052 H   0  0  0  0  0  0  0  0  0  0  0  0
   -8.3851    6.2629    6.2065 H   0  0  0  0  0  0  0  0  0  0  0  0
   -8.6779    6.9398    8.2357 H   0  0  0  0  0  0  0  0  0  0  0  0
    0.4627    8.5517    5.5298 H   0  0  0  0  0  0  0  0  0  0  0  0
    0.5406   11.7116    8.4578 H   0  0  0  0  0  0  0  0  0  0  0  0
    3.4396   10.4788    4.9498 H   0  0  0  0  0  0  0  0  0  0  0  0
    3.7639    9.1473    6.1163 H   0  0  0  0  0  0  0  0  0  0  0  0
    2.7273    8.8602    4.6880 H   0  0  0  0  0  0  0  0  0  0  0  0
   -7.6071    4.2672    7.6905 H   0  0  0  0  0  0  0  0  0  0  0  0
   -5.9260    4.2150    8.2578 H   0  0  0  0  0  0  0  0  0  0  0  0
   -7.0605    5.3463    8.9899 H   0  0  0  0  0  0  0  0  0  0  0  0
  1  2  2  0  0  0  0
  1 27  1  0  0  0  0
  2  3  1  0  0  0  0
  2 28  1  0  0  0  0
  3  4  2  0  0  0  0
  3 29  1  0  0  0  0
  4  5  1  0  0  0  0
  4 30  1  0  0  0  0
  5  6  2  0  0  0  0
  5  7  1  0  0  0  0
  6  1  1  0  0  0  0
  6 31  1  0  0  0  0
  7  8  1  0  0  0  0
  8  9  2  0  0  0  0
  8 32  1  0  0  0  0
  9 14  1  0  0  0  0
 10 11  1  0  0  0  0
 10 13  2  0  0  0  0
 10  9  1  0  0  0  0
 11 20  1  0  0  0  0
 11 12  1  0  0  0  0
 12  7  2  0  0  0  0
 14 15  1  0  0  0  0
 14 16  2  0  0  0  0
 15 33  1  0  0  0  0
 17 26  1  0  0  0  0
 17 34  1  6  0  0  0
 17 18  1  0  0  0  0
 17 15  1  0  0  0  0
 18 19  1  0  0  0  0
 18 35  1  0  0  0  0
 18 36  1  0  0  0  0
 19 37  1  0  0  0  0
 20 21  2  0  0  0  0
 21 22  1  0  0  0  0
 21 38  1  0  0  0  0
 22 23  1  0  0  0  0
 22 25  1  0  0  0  0
 23 24  2  0  0  0  0
 24 20  1  0  0  0  0
 24 39  1  0  0  0  0
 25 40  1  0  0  0  0
 25 41  1  0  0  0  0
 25 42  1  0  0  0  0
 26 43  1  0  0  0  0
 26 44  1  0  0  0  0
 26 45  1  0  0  0  0
M  END
>  <Mol_ID>
4913

>  <Formula>
C18H18ClN5O3

>  <MolWeight>
387.82022

>  <Cat>
S8995

>  <Name>
BAY 2416964

>  <Synonyms>
N/A

>  <Target>
AhR

>  <Form>
Free Base

>  <CAS>
2242464-44-2

>  <URL>
http://www.selleckchem.com/products/bay-2416964.html

$$$$
