Bay 41-4109 racemate
 OpenBabel08302521243D

 40 42  0  0  0  0  0  0  0  0999 V2000
   -0.3602    1.2589   -0.1205 C   0  0  0  0  0  0  0  0  0  0  0  0
    0.9137    1.0693   -0.0554 N   0  0  0  0  0  0  0  0  0  0  0  0
    1.4385   -0.3094   -0.0185 C   0  0  3  0  0  0  0  0  0  0  0  0
    0.3936   -1.4105    0.0121 C   0  0  0  0  0  0  0  0  0  0  0  0
   -0.9208   -1.1041   -0.0487 C   0  0  0  0  0  0  0  0  0  0  0  0
   -1.2762    0.2300   -0.0985 N   0  0  0  0  0  0  0  0  0  0  0  0
    0.8751   -2.8226    0.0317 C   0  0  0  0  0  0  0  0  0  0  0  0
    0.2201   -3.7843   -0.3376 O   0  0  0  0  0  0  0  0  0  0  0  0
    2.1561   -2.8864    0.4798 O   0  0  0  0  0  0  0  0  0  0  0  0
   -2.0316   -2.1178   -0.0923 C   0  0  0  0  0  0  0  0  0  0  0  0
   -0.8706    2.6678   -0.2482 C   0  0  0  0  0  0  0  0  0  0  0  0
    0.0036    3.7436   -0.4226 C   0  0  0  0  0  0  0  0  0  0  0  0
   -0.5174    5.0223   -0.5658 C   0  0  0  0  0  0  0  0  0  0  0  0
   -1.8910    5.1832   -0.5295 C   0  0  0  0  0  0  0  0  0  0  0  0
   -2.7021    4.0688   -0.3590 C   0  0  0  0  0  0  0  0  0  0  0  0
   -2.2337    2.8015   -0.2174 N   0  0  0  0  0  0  0  0  0  0  0  0
   -2.4263    6.4022   -0.6649 F   0  0  0  0  0  0  0  0  0  0  0  0
    1.3340    3.5993   -0.4779 F   0  0  0  0  0  0  0  0  0  0  0  0
    2.4328   -0.4432   -1.1740 C   0  0  0  0  0  0  0  0  0  0  0  0
    3.7753   -0.0770   -0.9734 C   0  0  0  0  0  0  0  0  0  0  0  0
    4.7108   -0.2295   -1.9964 C   0  0  0  0  0  0  0  0  0  0  0  0
    4.3051   -0.7364   -3.2246 C   0  0  0  0  0  0  0  0  0  0  0  0
    2.9753   -1.0594   -3.4625 C   0  0  0  0  0  0  0  0  0  0  0  0
    2.0355   -0.8939   -2.4462 C   0  0  0  0  0  0  0  0  0  0  0  0
    5.2095   -0.9128   -4.1966 F   0  0  0  0  0  0  0  0  0  0  0  0
    2.7646   -4.1719    0.3370 C   0  0  0  0  0  0  0  0  0  0  0  0
    1.9978   -0.3877    0.9246 H   0  0  0  0  0  0  0  0  0  0  0  0
   -2.2629    0.4759   -0.1329 H   0  0  0  0  0  0  0  0  0  0  0  0
   -2.0144   -2.6583   -1.0453 H   0  0  0  0  0  0  0  0  0  0  0  0
   -1.9516   -2.8334    0.7325 H   0  0  0  0  0  0  0  0  0  0  0  0
   -3.0149   -1.6432   -0.0101 H   0  0  0  0  0  0  0  0  0  0  0  0
    0.1432    5.8686   -0.7084 H   0  0  0  0  0  0  0  0  0  0  0  0
   -3.7832    4.1818   -0.3331 H   0  0  0  0  0  0  0  0  0  0  0  0
    4.0918    0.3290   -0.0145 H   0  0  0  0  0  0  0  0  0  0  0  0
    5.7498    0.0409   -1.8414 H   0  0  0  0  0  0  0  0  0  0  0  0
    2.6776   -1.4395   -4.4340 H   0  0  0  0  0  0  0  0  0  0  0  0
    0.9937   -1.1325   -2.6494 H   0  0  0  0  0  0  0  0  0  0  0  0
    2.4018   -4.8429    1.1204 H   0  0  0  0  0  0  0  0  0  0  0  0
    2.5763   -4.5972   -0.6552 H   0  0  0  0  0  0  0  0  0  0  0  0
    3.8458   -4.0501    0.4497 H   0  0  0  0  0  0  0  0  0  0  0  0
  1  2  2  0  0  0  0
  1  6  1  0  0  0  0
  1 11  1  0  0  0  0
  2  3  1  0  0  0  0
  3  4  1  0  0  0  0
  3 19  1  0  0  0  0
  3 27  1  0  0  0  0
  4  5  2  0  0  0  0
  4  7  1  0  0  0  0
  5  6  1  0  0  0  0
  5 10  1  0  0  0  0
  6 28  1  0  0  0  0
  7  8  2  0  0  0  0
  7  9  1  0  0  0  0
  9 26  1  0  0  0  0
 10 29  1  0  0  0  0
 10 30  1  0  0  0  0
 10 31  1  0  0  0  0
 11 12  2  0  0  0  0
 11 16  1  0  0  0  0
 12 13  1  0  0  0  0
 12 18  1  0  0  0  0
 13 14  2  0  0  0  0
 13 32  1  0  0  0  0
 14 15  1  0  0  0  0
 14 17  1  0  0  0  0
 15 16  2  0  0  0  0
 15 33  1  0  0  0  0
 19 20  2  0  0  0  0
 19 24  1  0  0  0  0
 20 21  1  0  0  0  0
 20 34  1  0  0  0  0
 21 22  2  0  0  0  0
 21 35  1  0  0  0  0
 22 23  1  0  0  0  0
 22 25  1  0  0  0  0
 23 24  2  0  0  0  0
 23 36  1  0  0  0  0
 24 37  1  0  0  0  0
 26 38  1  0  0  0  0
 26 39  1  0  0  0  0
 26 40  1  0  0  0  0
M  END
>  <Mol_ID>
4975

>  <Formula>
C18H13ClF3N3O2

>  <MolWeight>
395.7629296

>  <Cat>
S0285

>  <Name>
Bay 41-4109 racemate

>  <Synonyms>
BAY41-4109  Racemic

>  <Target>
HBV

>  <Form>
Free Base

>  <CAS>
298708-79-9

>  <URL>
http://www.selleckchem.com/products/bay41-4109-racemic.html

$$$$
