BAZ1A-IN-1
 OpenBabel08302521323D

 36 38  0  0  0  0  0  0  0  0999 V2000
   -1.0778   -0.4756   -1.4477 N   0  0  0  0  0  0  0  0  0  0  0  0
    0.2930   -0.4820   -1.2098 C   0  0  0  0  0  0  0  0  0  0  0  0
    0.7869   -0.6103   -0.0954 O   0  0  0  0  0  0  0  0  0  0  0  0
    1.0122   -0.3248   -2.3699 N   0  0  0  0  0  0  0  0  0  0  0  0
    3.1519    0.2117   -3.7330 S   0  0  0  0  0  0  0  0  0  0  0  0
    2.3783   -0.4220   -2.3518 C   0  0  0  0  0  0  0  0  0  0  0  0
    3.1544   -0.9514   -1.4417 N   0  0  0  0  0  0  0  0  0  0  0  0
    4.4748   -0.8707   -1.8424 C   0  0  0  0  0  0  0  0  0  0  0  0
    4.6668   -0.2128   -3.0446 C   0  0  0  0  0  0  0  0  0  0  0  0
    5.5505   -1.4535   -1.0488 C   0  0  0  0  0  0  0  0  0  0  0  0
    6.7050   -1.9621   -1.6648 C   0  0  0  0  0  0  0  0  0  0  0  0
    7.7295   -2.5333   -0.9063 C   0  0  0  0  0  0  0  0  0  0  0  0
    7.6117   -2.6066    0.4783 C   0  0  0  0  0  0  0  0  0  0  0  0
    6.4643   -2.1202    1.1049 C   0  0  0  0  0  0  0  0  0  0  0  0
    5.4355   -1.5518    0.3448 C   0  0  0  0  0  0  0  0  0  0  0  0
   -2.0737   -0.5400   -0.4450 C   0  0  0  0  0  0  0  0  0  0  0  0
   -1.8155   -0.2323    0.8931 C   0  0  0  0  0  0  0  0  0  0  0  0
   -2.8262   -0.3582    1.8549 C   0  0  0  0  0  0  0  0  0  0  0  0
   -4.1090   -0.7784    1.4865 C   0  0  0  0  0  0  0  0  0  0  0  0
   -4.3768   -1.0542    0.1447 C   0  0  0  0  0  0  0  0  0  0  0  0
   -3.3668   -0.9278   -0.8162 C   0  0  0  0  0  0  0  0  0  0  0  0
   -2.5306   -0.0459    3.2605 N   0  3  0  0  0  0  0  0  0  0  0  0
   -1.4041    0.3886    3.5365 O   0  0  0  0  0  0  0  0  0  0  0  0
   -3.4339   -0.2272    4.0900 O   0  5  0  0  0  0  0  0  0  0  0  0
   -1.3647   -0.6957   -2.3914 H   0  0  0  0  0  0  0  0  0  0  0  0
    0.5928    0.0986   -3.1785 H   0  0  0  0  0  0  0  0  0  0  0  0
    5.5926    0.0164   -3.5525 H   0  0  0  0  0  0  0  0  0  0  0  0
    6.8129   -1.9430   -2.7462 H   0  0  0  0  0  0  0  0  0  0  0  0
    8.6133   -2.9274   -1.4003 H   0  0  0  0  0  0  0  0  0  0  0  0
    8.4083   -3.0514    1.0693 H   0  0  0  0  0  0  0  0  0  0  0  0
    6.3657   -2.1881    2.1858 H   0  0  0  0  0  0  0  0  0  0  0  0
    4.5402   -1.1880    0.8473 H   0  0  0  0  0  0  0  0  0  0  0  0
   -0.8354    0.1150    1.2089 H   0  0  0  0  0  0  0  0  0  0  0  0
   -4.9003   -0.8894    2.2247 H   0  0  0  0  0  0  0  0  0  0  0  0
   -5.3729   -1.3812   -0.1499 H   0  0  0  0  0  0  0  0  0  0  0  0
   -3.6035   -1.1650   -1.8507 H   0  0  0  0  0  0  0  0  0  0  0  0
  1  2  1  0  0  0  0
  1 16  1  0  0  0  0
  1 25  1  0  0  0  0
  2  3  2  0  0  0  0
  2  4  1  0  0  0  0
  4  6  1  0  0  0  0
  4 26  1  0  0  0  0
  5  6  1  0  0  0  0
  5  9  1  0  0  0  0
  6  7  2  0  0  0  0
  7  8  1  0  0  0  0
  8  9  2  0  0  0  0
  8 10  1  0  0  0  0
  9 27  1  0  0  0  0
 10 11  2  0  0  0  0
 10 15  1  0  0  0  0
 11 12  1  0  0  0  0
 11 28  1  0  0  0  0
 12 13  2  0  0  0  0
 12 29  1  0  0  0  0
 13 14  1  0  0  0  0
 13 30  1  0  0  0  0
 14 15  2  0  0  0  0
 14 31  1  0  0  0  0
 15 32  1  0  0  0  0
 16 17  2  0  0  0  0
 16 21  1  0  0  0  0
 17 18  1  0  0  0  0
 17 33  1  0  0  0  0
 18 19  2  0  0  0  0
 18 22  1  0  0  0  0
 19 20  1  0  0  0  0
 19 34  1  0  0  0  0
 20 21  2  0  0  0  0
 20 35  1  0  0  0  0
 21 36  1  0  0  0  0
 22 23  2  0  0  0  0
 22 24  1  0  0  0  0
M  CHG  2  22   1  24  -1
M  END
>  <Mol_ID>
6337

>  <Formula>
C16H12N4O3S

>  <MolWeight>
340.35648

>  <Cat>
E0781

>  <Name>
BAZ1A-IN-1

>  <Target>
Epigenetic Reader Domain

>  <Form>
free base

>  <CAS>
941521-45-5

>  <URL>
http://www.selleckchem.com/products/baz1a-in-1.html

$$$$
