BCH001
 OpenBabel08302521263D

 45 47  0  0  0  0  0  0  0  0999 V2000
    1.0641   -0.8985    0.9274 C   0  0  0  0  0  0  0  0  0  0  0  0
    1.4310    0.3135    0.3454 C   0  0  0  0  0  0  0  0  0  0  0  0
    0.5174    1.3649    0.2607 C   0  0  0  0  0  0  0  0  0  0  0  0
   -0.7877    1.2102    0.7510 C   0  0  0  0  0  0  0  0  0  0  0  0
   -1.2080   -0.0853    1.1199 C   0  0  0  0  0  0  0  0  0  0  0  0
   -0.2751   -1.1292    1.2530 C   0  0  0  0  0  0  0  0  0  0  0  0
   -2.6741   -0.4063    1.0581 C   0  0  0  0  0  0  0  0  0  0  0  0
   -1.5651    2.3956    1.1038 N   0  0  0  0  0  0  0  0  0  0  0  0
   -1.8262    3.3968    0.1458 C   0  0  0  0  0  0  0  0  0  0  0  0
   -1.1810    4.6354   -0.0343 C   0  0  0  0  0  0  0  0  0  0  0  0
   -1.0827    4.9965   -1.4000 C   0  0  0  0  0  0  0  0  0  0  0  0
   -1.2872    4.1261   -2.3874 N   0  0  0  0  0  0  0  0  0  0  0  0
   -2.1938    3.1833   -2.0999 C   0  0  0  0  0  0  0  0  0  0  0  0
   -2.7459    3.0882   -0.8394 C   0  0  0  0  0  0  0  0  0  0  0  0
   -1.0830    5.6415    0.9579 C   0  0  0  0  0  0  0  0  0  0  0  0
   -1.2728    6.9681    0.5684 C   0  0  0  0  0  0  0  0  0  0  0  0
   -1.3411    7.2786   -0.7973 C   0  0  0  0  0  0  0  0  0  0  0  0
   -1.1223    6.3044   -1.7631 C   0  0  0  0  0  0  0  0  0  0  0  0
   -1.4018    8.0707    1.3512 O   0  0  0  0  0  0  0  0  0  0  0  0
   -3.9738    3.9212   -0.6079 C   0  0  0  0  0  0  0  0  0  0  0  0
   -4.4209    4.5007   -1.7558 O   0  0  0  0  0  0  0  0  0  0  0  0
   -4.4821    4.0843    0.5009 O   0  0  0  0  0  0  0  0  0  0  0  0
   -5.7645    4.9895   -1.7007 C   0  0  0  0  0  0  0  0  0  0  0  0
   -6.6620    3.7647   -1.7407 C   0  0  0  0  0  0  0  0  0  0  0  0
   -2.0383    8.0248    2.6161 C   0  0  0  0  0  0  0  0  0  0  0  0
   -2.1313    6.7931    3.1485 F   0  0  0  0  0  0  0  0  0  0  0  0
   -1.3201    8.7977    3.4632 F   0  0  0  0  0  0  0  0  0  0  0  0
   -3.2764    8.5549    2.5236 F   0  0  0  0  0  0  0  0  0  0  0  0
   -3.0770   -1.2940    1.9757 O   0  0  0  0  0  0  0  0  0  0  0  0
   -3.4026    0.0980    0.2165 O   0  0  0  0  0  0  0  0  0  0  0  0
    1.8091   -1.6781    1.0720 H   0  0  0  0  0  0  0  0  0  0  0  0
    2.4493    0.4586   -0.0104 H   0  0  0  0  0  0  0  0  0  0  0  0
    0.8362    2.3146   -0.1580 H   0  0  0  0  0  0  0  0  0  0  0  0
   -0.5612   -2.1221    1.5898 H   0  0  0  0  0  0  0  0  0  0  0  0
   -2.4956    2.0251    1.3278 H   0  0  0  0  0  0  0  0  0  0  0  0
   -2.5252    2.5470   -2.9057 H   0  0  0  0  0  0  0  0  0  0  0  0
   -1.0319    5.3498    2.0100 H   0  0  0  0  0  0  0  0  0  0  0  0
   -1.6239    8.2799   -1.1216 H   0  0  0  0  0  0  0  0  0  0  0  0
   -1.2113    6.5544   -2.8175 H   0  0  0  0  0  0  0  0  0  0  0  0
   -5.9423    5.6162   -0.8196 H   0  0  0  0  0  0  0  0  0  0  0  0
   -5.9287    5.6108   -2.5868 H   0  0  0  0  0  0  0  0  0  0  0  0
   -6.5767    3.2042   -0.8046 H   0  0  0  0  0  0  0  0  0  0  0  0
   -7.7059    4.0289   -1.8962 H   0  0  0  0  0  0  0  0  0  0  0  0
   -6.3260    3.0902   -2.5354 H   0  0  0  0  0  0  0  0  0  0  0  0
   -2.4271   -1.5034    2.6717 H   0  0  0  0  0  0  0  0  0  0  0  0
  1  2  2  0  0  0  0
  1 31  1  0  0  0  0
  2  3  1  0  0  0  0
  2 32  1  0  0  0  0
  3  4  2  0  0  0  0
  3 33  1  0  0  0  0
  4  5  1  0  0  0  0
  4  8  1  0  0  0  0
  5  6  2  0  0  0  0
  5  7  1  0  0  0  0
  6  1  1  0  0  0  0
  6 34  1  0  0  0  0
  7 29  1  0  0  0  0
  7 30  2  0  0  0  0
  8  9  1  0  0  0  0
  8 35  1  0  0  0  0
  9 10  2  0  0  0  0
 10 11  1  0  0  0  0
 10 15  1  0  0  0  0
 11 12  2  0  0  0  0
 12 13  1  0  0  0  0
 13 14  2  0  0  0  0
 13 36  1  0  0  0  0
 14  9  1  0  0  0  0
 14 20  1  0  0  0  0
 15 16  2  0  0  0  0
 15 37  1  0  0  0  0
 16 17  1  0  0  0  0
 16 19  1  0  0  0  0
 17 18  2  0  0  0  0
 17 38  1  0  0  0  0
 18 11  1  0  0  0  0
 18 39  1  0  0  0  0
 19 25  1  0  0  0  0
 20 21  1  0  0  0  0
 20 22  2  0  0  0  0
 21 23  1  0  0  0  0
 23 24  1  0  0  0  0
 23 40  1  0  0  0  0
 23 41  1  0  0  0  0
 24 42  1  0  0  0  0
 24 43  1  0  0  0  0
 24 44  1  0  0  0  0
 25 26  1  0  0  0  0
 25 27  1  0  0  0  0
 25 28  1  0  0  0  0
 29 45  1  0  0  0  0
M  END
>  <Mol_ID>
5234

>  <Formula>
C20H15F3N2O5

>  <MolWeight>
420.3387096

>  <Cat>
S8977

>  <Name>
BCH001

>  <Synonyms>
N/A

>  <Target>
DNA/RNA Synthesis

>  <Form>
free base

>  <CAS>
384859-58-9

>  <URL>
http://www.selleckchem.com/products/bch001.html

$$$$
