BD1063 2HCL
 OpenBabel08302521243D

 35 36  0  0  0  0  0  0  0  0999 V2000
   -1.7971   -0.0916    0.2231 N   0  0  0  0  0  0  0  0  0  0  0  0
   -1.1168   -1.3403   -0.1915 C   0  0  0  0  0  0  0  0  0  0  0  0
    0.4323   -1.3230   -0.0920 C   0  0  0  0  0  0  0  0  0  0  0  0
    1.0410   -0.1788   -0.7914 N   0  0  0  0  0  0  0  0  0  0  0  0
    0.3903    1.0824   -0.3985 C   0  0  0  0  0  0  0  0  0  0  0  0
   -1.1527    1.0317   -0.4817 C   0  0  0  0  0  0  0  0  0  0  0  0
    2.4819   -0.1202   -0.5397 C   0  0  0  0  0  0  0  0  0  0  0  0
   -1.8196    0.0280    1.6920 C   0  0  0  0  0  0  0  0  0  0  0  0
   -2.5647    1.2625    2.2548 C   0  0  0  0  0  0  0  0  0  0  0  0
   -2.6894    1.1616    3.7620 C   0  0  0  0  0  0  0  0  0  0  0  0
   -1.6963    1.6948    4.5958 C   0  0  0  0  0  0  0  0  0  0  0  0
   -1.7377    1.4794    5.9758 C   0  0  0  0  0  0  0  0  0  0  0  0
   -2.7741    0.7364    6.5371 C   0  0  0  0  0  0  0  0  0  0  0  0
   -3.7900    0.2403    5.7223 C   0  0  0  0  0  0  0  0  0  0  0  0
   -3.7510    0.4549    4.3424 C   0  0  0  0  0  0  0  0  0  0  0  0
   -1.3937   -1.5471   -1.2328 H   0  0  0  0  0  0  0  0  0  0  0  0
   -1.5028   -2.1936    0.3850 H   0  0  0  0  0  0  0  0  0  0  0  0
    0.8131   -2.2523   -0.5339 H   0  0  0  0  0  0  0  0  0  0  0  0
    0.7254   -1.3290    0.9656 H   0  0  0  0  0  0  0  0  0  0  0  0
    0.6850    1.3688    0.6226 H   0  0  0  0  0  0  0  0  0  0  0  0
    0.7352    1.8756   -1.0739 H   0  0  0  0  0  0  0  0  0  0  0  0
   -1.4289    0.9520   -1.5433 H   0  0  0  0  0  0  0  0  0  0  0  0
   -1.5692    1.9929   -0.1581 H   0  0  0  0  0  0  0  0  0  0  0  0
    2.9249    0.7707   -0.9989 H   0  0  0  0  0  0  0  0  0  0  0  0
    2.7133   -0.0963    0.5322 H   0  0  0  0  0  0  0  0  0  0  0  0
    2.9861   -0.9869   -0.9810 H   0  0  0  0  0  0  0  0  0  0  0  0
   -2.3399   -0.8587    2.0766 H   0  0  0  0  0  0  0  0  0  0  0  0
   -0.8088   -0.0002    2.1142 H   0  0  0  0  0  0  0  0  0  0  0  0
   -2.0312    2.1868    2.0046 H   0  0  0  0  0  0  0  0  0  0  0  0
   -3.5643    1.3485    1.8105 H   0  0  0  0  0  0  0  0  0  0  0  0
   -0.8739    2.2671    4.1744 H   0  0  0  0  0  0  0  0  0  0  0  0
   -0.9522    1.8803    6.6110 H   0  0  0  0  0  0  0  0  0  0  0  0
   -2.7888    0.5412    7.6056 H   0  0  0  0  0  0  0  0  0  0  0  0
   -4.6040   -0.3323    6.1590 H   0  0  0  0  0  0  0  0  0  0  0  0
   -4.5444    0.0449    3.7202 H   0  0  0  0  0  0  0  0  0  0  0  0
  1  2  1  0  0  0  0
  1  6  1  0  0  0  0
  1  8  1  0  0  0  0
  2  3  1  0  0  0  0
  2 16  1  0  0  0  0
  2 17  1  0  0  0  0
  3  4  1  0  0  0  0
  3 18  1  0  0  0  0
  3 19  1  0  0  0  0
  4  5  1  0  0  0  0
  4  7  1  0  0  0  0
  5  6  1  0  0  0  0
  5 20  1  0  0  0  0
  5 21  1  0  0  0  0
  6 22  1  0  0  0  0
  6 23  1  0  0  0  0
  7 24  1  0  0  0  0
  7 25  1  0  0  0  0
  7 26  1  0  0  0  0
  8  9  1  0  0  0  0
  8 27  1  0  0  0  0
  8 28  1  0  0  0  0
  9 10  1  0  0  0  0
  9 29  1  0  0  0  0
  9 30  1  0  0  0  0
 10 11  2  0  0  0  0
 10 15  1  0  0  0  0
 11 12  1  0  0  0  0
 11 31  1  0  0  0  0
 12 13  2  0  0  0  0
 12 32  1  0  0  0  0
 13 14  1  0  0  0  0
 13 33  1  0  0  0  0
 14 15  2  0  0  0  0
 14 34  1  0  0  0  0
 15 35  1  0  0  0  0
M  END
>  <Mol_ID>
5051

>  <Formula>
C13H20Cl4N2

>  <MolWeight>
346.1233

>  <Cat>
S0191

>  <Name>
BD1063 2HCL

>  <Synonyms>
BD1063 dihydrochloride

>  <Target>
Sigma Receptor

>  <Form>
2HCL

>  <CAS>
206996-13-6

>  <URL>
http://www.selleckchem.com/products/bd1063-2hcl.html

$$$$
