Benazepril hydrochloride.cdx
 OpenBabel08302522053D

 59 61  0  0  0  0  0  0  0  0999 V2000
    6.7863    4.0091   -0.8264 N   0  0  0  0  0  0  0  0  0  0  0  0
    5.9043    3.0866   -1.3708 C   0  0  0  0  0  0  0  0  0  0  0  0
    6.5747    1.9073   -2.0822 C   0  0  2  0  0  0  0  0  0  0  0  0
    7.3140    2.4368   -3.3429 C   0  0  0  0  0  0  0  0  0  0  0  0
    8.3438    3.5570   -3.1000 C   0  0  0  0  0  0  0  0  0  0  0  0
    7.7142    4.9090   -2.8413 C   0  0  0  0  0  0  0  0  0  0  0  0
    6.9947    5.1394   -1.6576 C   0  0  0  0  0  0  0  0  0  0  0  0
    7.8579    5.9635   -3.7561 C   0  0  0  0  0  0  0  0  0  0  0  0
    7.2608    7.1980   -3.5060 C   0  0  0  0  0  0  0  0  0  0  0  0
    6.5347    7.4092   -2.3378 C   0  0  0  0  0  0  0  0  0  0  0  0
    6.4210    6.3861   -1.3953 C   0  0  0  0  0  0  0  0  0  0  0  0
    6.8232    4.1493    0.6231 C   0  0  0  0  0  0  0  0  0  0  0  0
    5.6168    4.6229    1.4305 C   0  0  0  0  0  0  0  0  0  0  0  0
    4.4541    4.7676    0.7690 O   0  0  0  0  0  0  0  0  0  0  0  0
    5.7007    4.8433    2.6329 O   0  0  0  0  0  0  0  0  0  0  0  0
    4.6987    3.3157   -1.3066 O   0  0  0  0  0  0  0  0  0  0  0  0
    5.6166    0.8648   -2.5403 N   0  0  0  0  0  0  0  0  0  0  0  0
    4.7894    0.1173   -1.5470 C   0  0  2  0  0  0  0  0  0  0  0  0
    3.5835    0.9274   -1.0227 C   0  0  0  0  0  0  0  0  0  0  0  0
    2.7727    1.3363   -2.0429 O   0  0  0  0  0  0  0  0  0  0  0  0
    1.7730    2.3000   -1.6714 C   0  0  0  0  0  0  0  0  0  0  0  0
    0.4463    1.6191   -1.4003 C   0  0  0  0  0  0  0  0  0  0  0  0
    3.3799    1.1538    0.1677 O   0  0  0  0  0  0  0  0  0  0  0  0
    5.5986   -0.5147   -0.3955 C   0  0  0  0  0  0  0  0  0  0  0  0
    4.8070   -1.6160    0.3374 C   0  0  0  0  0  0  0  0  0  0  0  0
    5.6140   -2.2580    1.4407 C   0  0  0  0  0  0  0  0  0  0  0  0
    5.5823   -1.7343    2.7407 C   0  0  0  0  0  0  0  0  0  0  0  0
    6.3544   -2.3067    3.7534 C   0  0  0  0  0  0  0  0  0  0  0  0
    7.1551   -3.4110    3.4818 C   0  0  0  0  0  0  0  0  0  0  0  0
    7.1907   -3.9452    2.1943 C   0  0  0  0  0  0  0  0  0  0  0  0
    6.4207   -3.3737    1.1788 C   0  0  0  0  0  0  0  0  0  0  0  0
    7.3060    1.4609   -1.3984 H   0  0  0  0  0  0  0  0  0  0  0  0
    7.8501    1.5949   -3.8033 H   0  0  0  0  0  0  0  0  0  0  0  0
    6.5815    2.7872   -4.0825 H   0  0  0  0  0  0  0  0  0  0  0  0
    8.9965    3.6288   -3.9803 H   0  0  0  0  0  0  0  0  0  0  0  0
    9.0050    3.2969   -2.2644 H   0  0  0  0  0  0  0  0  0  0  0  0
    8.4251    5.8268   -4.6758 H   0  0  0  0  0  0  0  0  0  0  0  0
    7.3554    8.0011   -4.2392 H   0  0  0  0  0  0  0  0  0  0  0  0
    6.0370    8.3592   -2.1657 H   0  0  0  0  0  0  0  0  0  0  0  0
    5.8161    6.5695   -0.5167 H   0  0  0  0  0  0  0  0  0  0  0  0
    7.0928    3.1598    1.0133 H   0  0  0  0  0  0  0  0  0  0  0  0
    7.6537    4.8294    0.8551 H   0  0  0  0  0  0  0  0  0  0  0  0
    4.4510    4.3910   -0.1463 H   0  0  0  0  0  0  0  0  0  0  0  0
    6.1410    0.1729   -3.0768 H   0  0  0  0  0  0  0  0  0  0  0  0
    4.3355   -0.7106   -2.1097 H   0  0  0  0  0  0  0  0  0  0  0  0
    2.0861    2.8911   -0.8025 H   0  0  0  0  0  0  0  0  0  0  0  0
    1.6672    3.0049   -2.5041 H   0  0  0  0  0  0  0  0  0  0  0  0
    0.5767    0.6901   -0.8381 H   0  0  0  0  0  0  0  0  0  0  0  0
   -0.2193    2.2851   -0.8420 H   0  0  0  0  0  0  0  0  0  0  0  0
   -0.0477    1.3634   -2.3435 H   0  0  0  0  0  0  0  0  0  0  0  0
    6.5187   -0.9583   -0.7987 H   0  0  0  0  0  0  0  0  0  0  0  0
    5.9065    0.2566    0.3217 H   0  0  0  0  0  0  0  0  0  0  0  0
    3.8780   -1.2235    0.7674 H   0  0  0  0  0  0  0  0  0  0  0  0
    4.4960   -2.3909   -0.3749 H   0  0  0  0  0  0  0  0  0  0  0  0
    4.9513   -0.8778    2.9727 H   0  0  0  0  0  0  0  0  0  0  0  0
    6.3240   -1.8905    4.7586 H   0  0  0  0  0  0  0  0  0  0  0  0
    7.7659   -3.8498    4.2684 H   0  0  0  0  0  0  0  0  0  0  0  0
    7.8133   -4.8102    1.9819 H   0  0  0  0  0  0  0  0  0  0  0  0
    6.4522   -3.8078    0.1824 H   0  0  0  0  0  0  0  0  0  0  0  0
  1  2  1  0  0  0  0
  1 12  1  0  0  0  0
  2  3  1  0  0  0  0
  2 16  2  0  0  0  0
  3  4  1  0  0  0  0
  3 32  1  1  0  0  0
  3 17  1  0  0  0  0
  4  5  1  0  0  0  0
  4 33  1  0  0  0  0
  4 34  1  0  0  0  0
  5  6  1  0  0  0  0
  5 35  1  0  0  0  0
  5 36  1  0  0  0  0
  6  7  2  0  0  0  0
  6  8  1  0  0  0  0
  7  1  1  0  0  0  0
  8  9  2  0  0  0  0
  8 37  1  0  0  0  0
  9 10  1  0  0  0  0
  9 38  1  0  0  0  0
 10 11  2  0  0  0  0
 10 39  1  0  0  0  0
 11  7  1  0  0  0  0
 11 40  1  0  0  0  0
 12 13  1  0  0  0  0
 12 41  1  0  0  0  0
 12 42  1  0  0  0  0
 13 14  1  0  0  0  0
 13 15  2  0  0  0  0
 14 43  1  0  0  0  0
 17 44  1  0  0  0  0
 18 24  1  0  0  0  0
 18 45  1  6  0  0  0
 18 19  1  0  0  0  0
 18 17  1  0  0  0  0
 19 20  1  0  0  0  0
 19 23  2  0  0  0  0
 20 21  1  0  0  0  0
 21 22  1  0  0  0  0
 21 46  1  0  0  0  0
 21 47  1  0  0  0  0
 22 48  1  0  0  0  0
 22 49  1  0  0  0  0
 22 50  1  0  0  0  0
 24 25  1  0  0  0  0
 24 51  1  0  0  0  0
 24 52  1  0  0  0  0
 25 26  1  0  0  0  0
 25 53  1  0  0  0  0
 25 54  1  0  0  0  0
 26 27  2  0  0  0  0
 27 28  1  0  0  0  0
 27 55  1  0  0  0  0
 28 29  2  0  0  0  0
 28 56  1  0  0  0  0
 29 30  1  0  0  0  0
 29 57  1  0  0  0  0
 30 31  2  0  0  0  0
 30 58  1  0  0  0  0
 31 26  1  0  0  0  0
 31 59  1  0  0  0  0
M  END
>  <Mol_ID>
155

>  <Formula>
C24H29ClN2O5

>  <MolWeight>
460.95046

>  <Cat>
S1284

>  <Name>
Benazepril HCl

>  <Synonyms>
CGS 14824A HCl

>  <Target>
RAAS

>  <Form>
Hydrochloride

>  <CAS>
86541-74-4

>  <URL>
http://selleckchem.com/products/Benazepril-hydrochloride.html

$$$$
