Bendamustine (SDX105)
 OpenBabel08302520403D

 44 45  0  0  0  0  0  0  0  0999 V2000
    0.2083   -0.8193    0.0096 C   0  0  0  0  0  0  0  0  0  0  0  0
   -0.1975    0.5037    0.0760 C   0  0  0  0  0  0  0  0  0  0  0  0
    1.5810   -1.1219   -0.0329 C   0  0  0  0  0  0  0  0  0  0  0  0
   -0.8754   -1.6610    0.0091 N   0  0  0  0  0  0  0  0  0  0  0  0
   -1.5740    0.4434    0.0469 N   0  0  0  0  0  0  0  0  0  0  0  0
    0.7141    1.5574    0.1406 C   0  0  0  0  0  0  0  0  0  0  0  0
    2.5506   -0.1030    0.0203 C   0  0  0  0  0  0  0  0  0  0  0  0
   -1.9434   -0.8850    0.0225 C   0  0  0  0  0  0  0  0  0  0  0  0
   -2.4221    1.6105    0.0165 C   0  0  0  0  0  0  0  0  0  0  0  0
    2.0789    1.2196    0.1211 C   0  0  0  0  0  0  0  0  0  0  0  0
    3.9132   -0.3904    0.0016 N   0  0  0  0  0  0  0  0  0  0  0  0
   -3.3471   -1.4036    0.0192 C   0  0  0  0  0  0  0  0  0  0  0  0
    4.4491   -1.5176   -0.7697 C   0  0  0  0  0  0  0  0  0  0  0  0
    4.8646    0.4138    0.7755 C   0  0  0  0  0  0  0  0  0  0  0  0
   -3.6255   -2.3262    1.2091 C   0  0  0  0  0  0  0  0  0  0  0  0
    4.7201   -1.1050   -2.2102 C   0  0  0  0  0  0  0  0  0  0  0  0
    4.6593    0.1971    2.2696 C   0  0  0  0  0  0  0  0  0  0  0  0
   -3.4799   -1.6248    2.5557 C   0  0  0  0  0  0  0  0  0  0  0  0
   -3.8099   -2.5727    3.6771 C   0  0  0  0  0  0  0  0  0  0  0  0
   -2.7437   -3.2690    4.1267 O   0  0  0  0  0  0  0  0  0  0  0  0
   -4.9376   -2.7253    4.1282 O   0  0  0  0  0  0  0  0  0  0  0  0
    1.8527   -2.1684   -0.0625 H   0  0  0  0  0  0  0  0  0  0  0  0
    0.3998    2.5933    0.1997 H   0  0  0  0  0  0  0  0  0  0  0  0
   -2.1785    2.2395    0.8769 H   0  0  0  0  0  0  0  0  0  0  0  0
   -2.2270    2.1487   -0.9153 H   0  0  0  0  0  0  0  0  0  0  0  0
   -3.4750    1.3381    0.0628 H   0  0  0  0  0  0  0  0  0  0  0  0
    2.7840    2.0463    0.1560 H   0  0  0  0  0  0  0  0  0  0  0  0
   -4.0922   -0.6055    0.0015 H   0  0  0  0  0  0  0  0  0  0  0  0
   -3.4908   -1.9755   -0.9061 H   0  0  0  0  0  0  0  0  0  0  0  0
    5.3878   -1.8660   -0.3213 H   0  0  0  0  0  0  0  0  0  0  0  0
    3.7892   -2.3889   -0.7588 H   0  0  0  0  0  0  0  0  0  0  0  0
    5.8941    0.1274    0.5261 H   0  0  0  0  0  0  0  0  0  0  0  0
    4.7954    1.4774    0.5259 H   0  0  0  0  0  0  0  0  0  0  0  0
   -4.6469   -2.7178    1.1142 H   0  0  0  0  0  0  0  0  0  0  0  0
   -2.9612   -3.1989    1.1735 H   0  0  0  0  0  0  0  0  0  0  0  0
    5.4895   -0.3273   -2.2592 H   0  0  0  0  0  0  0  0  0  0  0  0
    5.0729   -1.9652   -2.7887 H   0  0  0  0  0  0  0  0  0  0  0  0
    3.8180   -0.7175   -2.6945 H   0  0  0  0  0  0  0  0  0  0  0  0
    4.7755   -0.8604    2.5299 H   0  0  0  0  0  0  0  0  0  0  0  0
    5.3912    0.7740    2.8426 H   0  0  0  0  0  0  0  0  0  0  0  0
    3.6605    0.5109    2.5905 H   0  0  0  0  0  0  0  0  0  0  0  0
   -2.4702   -1.2298    2.7110 H   0  0  0  0  0  0  0  0  0  0  0  0
   -4.1589   -0.7678    2.6258 H   0  0  0  0  0  0  0  0  0  0  0  0
   -1.9130   -3.0649    3.6529 H   0  0  0  0  0  0  0  0  0  0  0  0
  1  2  1  0  0  0  0
  1  3  2  0  0  0  0
  1  4  1  0  0  0  0
  2  5  1  0  0  0  0
  2  6  2  0  0  0  0
  3  7  1  0  0  0  0
  3 22  1  0  0  0  0
  4  8  2  0  0  0  0
  5  9  1  0  0  0  0
  5  8  1  0  0  0  0
  6 10  1  0  0  0  0
  6 23  1  0  0  0  0
  7 11  1  0  0  0  0
  7 10  2  0  0  0  0
  8 12  1  0  0  0  0
  9 24  1  0  0  0  0
  9 25  1  0  0  0  0
  9 26  1  0  0  0  0
 10 27  1  0  0  0  0
 11 13  1  0  0  0  0
 11 14  1  0  0  0  0
 12 15  1  0  0  0  0
 12 28  1  0  0  0  0
 12 29  1  0  0  0  0
 13 16  1  0  0  0  0
 13 30  1  0  0  0  0
 13 31  1  0  0  0  0
 14 17  1  0  0  0  0
 14 32  1  0  0  0  0
 14 33  1  0  0  0  0
 15 18  1  0  0  0  0
 15 34  1  0  0  0  0
 15 35  1  0  0  0  0
 16 36  1  0  0  0  0
 16 37  1  0  0  0  0
 16 38  1  0  0  0  0
 17 39  1  0  0  0  0
 17 40  1  0  0  0  0
 17 41  1  0  0  0  0
 18 19  1  0  0  0  0
 18 42  1  0  0  0  0
 18 43  1  0  0  0  0
 19 20  1  0  0  0  0
 19 21  2  0  0  0  0
 20 44  1  0  0  0  0
M  END
>  <Mol_ID>
3716

>  <Formula>
C16H21Cl2N3O2

>  <MolWeight>
358.26284

>  <Cat>
S5939

>  <Name>
Bendamustine (SDX105)

>  <Synonyms>
SDX105

>  <Target>
Others

>  <Form>
Free Base

>  <CAS>
16506-27-7

>  <URL>
http://www.selleck.cn/products/bendamustine.html

$$$$
