Bendazac L-lysine
 OpenBabel08302521383D

 59 60  0  0  0  0  0  0  0  0999 V2000
   -0.2961   -0.9089   -0.7511 C   0  0  0  0  0  0  0  0  0  0  0  0
   -0.2579    0.8318   -0.2986 C   0  0  0  0  0  0  0  0  0  0  0  0
    1.4319   -1.4367   -1.1681 N   0  0  0  0  0  0  0  0  0  0  0  0
   -1.5119   -1.5963   -0.6623 C   0  0  0  0  0  0  0  0  0  0  0  0
    1.5822    1.4253   -0.5434 C   0  0  0  0  0  0  0  0  0  0  0  0
   -1.4414    1.3800    0.2094 C   0  0  0  0  0  0  0  0  0  0  0  0
    2.5290    0.0823   -1.0952 N   0  0  0  0  0  0  0  0  0  0  0  0
    1.9689   -2.7748   -0.7270 C   0  0  0  0  0  0  0  0  0  0  0  0
   -2.6114   -0.8300   -0.2052 C   0  0  0  0  0  0  0  0  0  0  0  0
    2.1901    2.5414   -0.0417 O   0  0  0  0  0  0  0  0  0  0  0  0
   -2.5778    0.5415    0.2098 C   0  0  0  0  0  0  0  0  0  0  0  0
    2.6968   -3.6219   -1.7338 C   0  0  0  0  0  0  0  0  0  0  0  0
    3.3088    2.9772   -0.8205 C   0  0  0  0  0  0  0  0  0  0  0  0
    3.9240   -3.2327   -2.2793 C   0  0  0  0  0  0  0  0  0  0  0  0
    2.1964   -4.8946   -2.0712 C   0  0  0  0  0  0  0  0  0  0  0  0
    4.2692    3.9470   -0.1303 C   0  0  0  0  0  0  0  0  0  0  0  0
    4.5040   -3.9809   -3.3086 C   0  0  0  0  0  0  0  0  0  0  0  0
    2.7855   -5.6507   -3.0860 C   0  0  0  0  0  0  0  0  0  0  0  0
    4.2779    3.8446    1.2178 O   0  0  0  0  0  0  0  0  0  0  0  0
    5.0195    4.7043   -0.7330 O   0  0  0  0  0  0  0  0  0  0  0  0
    3.9053   -5.1607   -3.7479 C   0  0  0  0  0  0  0  0  0  0  0  0
    1.2264   -0.2666    0.3026 C   0  0  0  0  0  0  0  0  0  0  0  0
    0.7811    0.2485   -1.8717 C   0  0  1  0  0  0  0  0  0  0  0  0
    0.4607   -1.3021    1.4813 C   0  0  0  0  0  0  0  0  0  0  0  0
   -0.8246    0.5791   -2.6776 C   0  0  0  0  0  0  0  0  0  0  0  0
    1.4666    1.5130   -2.8383 N   0  0  0  0  0  0  0  0  0  0  0  0
    0.9966   -1.0505    2.8927 C   0  0  0  0  0  0  0  0  0  0  0  0
   -1.0173    1.9330   -2.8033 O   0  0  0  0  0  0  0  0  0  0  0  0
   -1.5648   -0.2375   -3.2064 O   0  0  0  0  0  0  0  0  0  0  0  0
    0.4914    0.2810    3.4436 C   0  0  0  0  0  0  0  0  0  0  0  0
    0.9017    0.4463    4.8262 N   0  0  0  0  0  0  0  0  0  0  0  0
   -1.6172   -2.6401   -0.9332 H   0  0  0  0  0  0  0  0  0  0  0  0
   -1.5043    2.4137    0.5353 H   0  0  0  0  0  0  0  0  0  0  0  0
    2.6435   -2.5871    0.1168 H   0  0  0  0  0  0  0  0  0  0  0  0
    1.0994   -3.3325   -0.3702 H   0  0  0  0  0  0  0  0  0  0  0  0
   -3.5804   -1.3335   -0.1532 H   0  0  0  0  0  0  0  0  0  0  0  0
   -3.5220    0.9771    0.5466 H   0  0  0  0  0  0  0  0  0  0  0  0
    3.9360    2.1431   -1.1554 H   0  0  0  0  0  0  0  0  0  0  0  0
    2.9169    3.5319   -1.6802 H   0  0  0  0  0  0  0  0  0  0  0  0
    4.4399   -2.3462   -1.9140 H   0  0  0  0  0  0  0  0  0  0  0  0
    1.3368   -5.3156   -1.5512 H   0  0  0  0  0  0  0  0  0  0  0  0
    5.4172   -3.6327   -3.7848 H   0  0  0  0  0  0  0  0  0  0  0  0
    2.3584   -6.6085   -3.3752 H   0  0  0  0  0  0  0  0  0  0  0  0
    3.6360    3.1809    1.5407 H   0  0  0  0  0  0  0  0  0  0  0  0
    4.3198   -5.7044   -4.5932 H   0  0  0  0  0  0  0  0  0  0  0  0
    1.2549    0.5797    1.0613 H   0  0  0  0  0  0  0  0  0  0  0  0
    2.2692   -0.6307    0.5740 H   0  0  0  0  0  0  0  0  0  0  0  0
    1.0552   -0.4971   -2.6782 H   0  0  0  0  0  0  0  0  0  0  0  0
   -0.6199   -1.1754    1.5690 H   0  0  0  0  0  0  0  0  0  0  0  0
    0.6671   -2.3476    1.2672 H   0  0  0  0  0  0  0  0  0  0  0  0
    1.5608    1.0609   -3.7595 H   0  0  0  0  0  0  0  0  0  0  0  0
    2.4455    1.5181   -2.5460 H   0  0  0  0  0  0  0  0  0  0  0  0
    0.6319   -1.8697    3.5269 H   0  0  0  0  0  0  0  0  0  0  0  0
    2.0902   -1.1041    2.8922 H   0  0  0  0  0  0  0  0  0  0  0  0
   -0.1323    2.3308   -2.6204 H   0  0  0  0  0  0  0  0  0  0  0  0
    0.8915    1.1276    2.8821 H   0  0  0  0  0  0  0  0  0  0  0  0
   -0.6011    0.3284    3.3696 H   0  0  0  0  0  0  0  0  0  0  0  0
    0.5099    1.3192    5.1770 H   0  0  0  0  0  0  0  0  0  0  0  0
    0.4918   -0.2967    5.3899 H   0  0  0  0  0  0  0  0  0  0  0  0
  1  3  1  0  0  0  0
  1  4  2  0  0  0  0
  1  2  1  0  0  0  0
  2  5  1  0  0  0  0
  2  6  2  0  0  0  0
  3  7  1  0  0  0  0
  3  8  1  0  0  0  0
  4  9  1  0  0  0  0
  4 32  1  0  0  0  0
  5 10  1  0  0  0  0
  5  7  2  0  0  0  0
  6 11  1  0  0  0  0
  6 33  1  0  0  0  0
  8 12  1  0  0  0  0
  8 34  1  0  0  0  0
  8 35  1  0  0  0  0
  9 11  2  0  0  0  0
  9 36  1  0  0  0  0
 10 13  1  0  0  0  0
 11 37  1  0  0  0  0
 12 14  2  0  0  0  0
 12 15  1  0  0  0  0
 13 16  1  0  0  0  0
 13 38  1  0  0  0  0
 13 39  1  0  0  0  0
 14 17  1  0  0  0  0
 14 40  1  0  0  0  0
 15 18  2  0  0  0  0
 15 41  1  0  0  0  0
 16 19  1  0  0  0  0
 16 20  2  0  0  0  0
 17 21  2  0  0  0  0
 17 42  1  0  0  0  0
 18 21  1  0  0  0  0
 18 43  1  0  0  0  0
 19 44  1  0  0  0  0
 21 45  1  0  0  0  0
 22 23  1  0  0  0  0
 22 24  1  0  0  0  0
 22 46  1  0  0  0  0
 22 47  1  0  0  0  0
 23 25  1  0  0  0  0
 23 26  1  0  0  0  0
 23 48  1  6  0  0  0
 24 27  1  0  0  0  0
 24 49  1  0  0  0  0
 24 50  1  0  0  0  0
 25 28  1  0  0  0  0
 25 29  2  0  0  0  0
 26 51  1  0  0  0  0
 26 52  1  0  0  0  0
 27 30  1  0  0  0  0
 27 53  1  0  0  0  0
 27 54  1  0  0  0  0
 28 55  1  0  0  0  0
 30 31  1  0  0  0  0
 30 56  1  0  0  0  0
 30 57  1  0  0  0  0
 31 58  1  0  0  0  0
 31 59  1  0  0  0  0
M  END
>  <Mol_ID>
7869

>  <Formula>
C22H28N4O5

>  <MolWeight>
428.48152

>  <Cat>
S5867

>  <Name>
Bendazac L-lysine

>  <Synonyms>
N/A

>  <Target>
Others

>  <Form>
Free Base

>  <CAS>
81919-14-4

>  <URL>
https://www.selleckchem.com/products/bendazac-l-lysine.html

$$$$
