bentiromide.cdx
 OpenBabel08302519573D

 50 52  0  0  0  0  0  0  0  0999 V2000
    1.0189   -0.0996   -0.0997 C   0  0  1  0  0  0  0  0  0  0  0  0
    0.7040    0.0026    1.4099 C   0  0  0  0  0  0  0  0  0  0  0  0
    0.1652   -1.2423   -0.6810 C   0  0  0  0  0  0  0  0  0  0  0  0
    0.6408    1.1274   -0.7970 N   0  0  0  0  0  0  0  0  0  0  0  0
    1.3107    1.1518    2.1828 C   0  0  0  0  0  0  0  0  0  0  0  0
    0.6946   -1.8827   -1.7957 N   0  0  0  0  0  0  0  0  0  0  0  0
   -0.9298   -1.4973   -0.1775 O   0  0  0  0  0  0  0  0  0  0  0  0
    1.2910    1.5294   -1.9387 C   0  0  0  0  0  0  0  0  0  0  0  0
    0.6074    1.6520    3.2939 C   0  0  0  0  0  0  0  0  0  0  0  0
    2.5565    1.7078    1.8699 C   0  0  0  0  0  0  0  0  0  0  0  0
    0.0645   -2.9634   -2.4638 C   0  0  0  0  0  0  0  0  0  0  0  0
    0.8079    2.7922   -2.5669 C   0  0  0  0  0  0  0  0  0  0  0  0
    2.2013    0.8759   -2.4382 O   0  0  0  0  0  0  0  0  0  0  0  0
    1.1142    2.7101    4.0485 C   0  0  0  0  0  0  0  0  0  0  0  0
    3.0647    2.7669    2.6258 C   0  0  0  0  0  0  0  0  0  0  0  0
   -1.3008   -3.2314   -2.3248 C   0  0  0  0  0  0  0  0  0  0  0  0
    0.8275   -3.8092   -3.2780 C   0  0  0  0  0  0  0  0  0  0  0  0
    0.1828    3.8052   -1.8249 C   0  0  0  0  0  0  0  0  0  0  0  0
    1.0247    2.9748   -3.9377 C   0  0  0  0  0  0  0  0  0  0  0  0
    2.3390    3.2644    3.7010 C   0  0  0  0  0  0  0  0  0  0  0  0
   -1.8828   -4.3593   -2.9014 C   0  0  0  0  0  0  0  0  0  0  0  0
    0.2476   -4.9526   -3.8606 C   0  0  0  0  0  0  0  0  0  0  0  0
   -0.2365    4.9791   -2.4586 C   0  0  0  0  0  0  0  0  0  0  0  0
    0.6025    4.1477   -4.5666 C   0  0  0  0  0  0  0  0  0  0  0  0
    2.8678    4.3086    4.3994 O   0  0  0  0  0  0  0  0  0  0  0  0
   -1.1067   -5.2450   -3.6442 C   0  0  0  0  0  0  0  0  0  0  0  0
   -0.0288    5.1474   -3.8277 C   0  0  0  0  0  0  0  0  0  0  0  0
   -1.7908   -6.4427   -4.1964 C   0  0  0  0  0  0  0  0  0  0  0  0
   -1.0002   -7.5302   -4.3009 O   0  0  0  0  0  0  0  0  0  0  0  0
   -2.9775   -6.4551   -4.4765 O   0  0  0  0  0  0  0  0  0  0  0  0
    2.0812   -0.3152   -0.2590 H   0  0  0  0  0  0  0  0  0  0  0  0
   -0.3858    0.0836    1.5309 H   0  0  0  0  0  0  0  0  0  0  0  0
    1.0002   -0.9327    1.9032 H   0  0  0  0  0  0  0  0  0  0  0  0
   -0.2686    1.5196   -0.5838 H   0  0  0  0  0  0  0  0  0  0  0  0
    1.6288   -1.6147   -2.0894 H   0  0  0  0  0  0  0  0  0  0  0  0
   -0.3507    1.2175    3.5760 H   0  0  0  0  0  0  0  0  0  0  0  0
    3.1462    1.3382    1.0352 H   0  0  0  0  0  0  0  0  0  0  0  0
    0.5438    3.0798    4.8943 H   0  0  0  0  0  0  0  0  0  0  0  0
    4.0268    3.2039    2.3733 H   0  0  0  0  0  0  0  0  0  0  0  0
   -1.9615   -2.5647   -1.7794 H   0  0  0  0  0  0  0  0  0  0  0  0
    1.8847   -3.6147   -3.4436 H   0  0  0  0  0  0  0  0  0  0  0  0
    0.0417    3.7142   -0.7512 H   0  0  0  0  0  0  0  0  0  0  0  0
    1.5231    2.2025   -4.5195 H   0  0  0  0  0  0  0  0  0  0  0  0
   -2.9472   -4.5387   -2.7566 H   0  0  0  0  0  0  0  0  0  0  0  0
    0.8631   -5.5908   -4.4897 H   0  0  0  0  0  0  0  0  0  0  0  0
   -0.7138    5.7692   -1.8832 H   0  0  0  0  0  0  0  0  0  0  0  0
    0.7724    4.2828   -5.6319 H   0  0  0  0  0  0  0  0  0  0  0  0
    2.2383    4.5657    5.0928 H   0  0  0  0  0  0  0  0  0  0  0  0
   -0.3488    6.0639   -4.3181 H   0  0  0  0  0  0  0  0  0  0  0  0
   -0.1366   -7.4554   -3.8582 H   0  0  0  0  0  0  0  0  0  0  0  0
  1  4  1  0  0  0  0
  1 31  1  6  0  0  0
  1  3  1  0  0  0  0
  1  2  1  0  0  0  0
  2  5  1  0  0  0  0
  2 32  1  0  0  0  0
  2 33  1  0  0  0  0
  3  6  1  0  0  0  0
  3  7  2  0  0  0  0
  4  8  1  0  0  0  0
  4 34  1  0  0  0  0
  5  9  2  0  0  0  0
  5 10  1  0  0  0  0
  6 11  1  0  0  0  0
  6 35  1  0  0  0  0
  8 12  1  0  0  0  0
  8 13  2  0  0  0  0
  9 14  1  0  0  0  0
  9 36  1  0  0  0  0
 10 15  2  0  0  0  0
 10 37  1  0  0  0  0
 11 16  2  0  0  0  0
 11 17  1  0  0  0  0
 12 18  2  0  0  0  0
 12 19  1  0  0  0  0
 14 20  2  0  0  0  0
 14 38  1  0  0  0  0
 15 20  1  0  0  0  0
 15 39  1  0  0  0  0
 16 21  1  0  0  0  0
 16 40  1  0  0  0  0
 17 22  2  0  0  0  0
 17 41  1  0  0  0  0
 18 23  1  0  0  0  0
 18 42  1  0  0  0  0
 19 24  2  0  0  0  0
 19 43  1  0  0  0  0
 20 25  1  0  0  0  0
 21 26  2  0  0  0  0
 21 44  1  0  0  0  0
 22 26  1  0  0  0  0
 22 45  1  0  0  0  0
 23 27  2  0  0  0  0
 23 46  1  0  0  0  0
 24 27  1  0  0  0  0
 24 47  1  0  0  0  0
 25 48  1  0  0  0  0
 26 28  1  0  0  0  0
 27 49  1  0  0  0  0
 28 29  1  0  0  0  0
 28 30  2  0  0  0  0
 29 50  1  0  0  0  0
M  END
>  <Mol_ID>
2277

>  <Formula>
C23H20N2O5

>  <MolWeight>
404.4153

>  <Cat>
S4388

>  <Name>
Bentiromide

>  <Synonyms>
N/A

>  <Target>
Others

>  <Form>
Dipeptide

>  <CAS>
37106-97-1

>  <URL>
http://selleckchem.com/products/bentiromide.html

$$$$
