Benzyl salicylate
 OpenBabel08302521363D

 29 30  0  0  0  0  0  0  0  0999 V2000
    1.2681    0.0421   -0.5901 C   0  0  0  0  0  0  0  0  0  0  0  0
    0.3372    1.0181   -0.4786 O   0  0  0  0  0  0  0  0  0  0  0  0
    2.4502    0.1360   -0.2864 O   0  0  0  0  0  0  0  0  0  0  0  0
    0.8160    2.2657    0.0514 C   0  0  0  0  0  0  0  0  0  0  0  0
    2.9732   -2.1646   -1.3585 O   0  0  0  0  0  0  0  0  0  0  0  0
    0.7229   -1.2162   -1.1686 C   0  0  0  0  0  0  0  0  0  0  0  0
    1.6133   -2.2440   -1.5279 C   0  0  0  0  0  0  0  0  0  0  0  0
   -0.6512   -1.4151   -1.3614 C   0  0  0  0  0  0  0  0  0  0  0  0
    1.1469   -3.4292   -2.0952 C   0  0  0  0  0  0  0  0  0  0  0  0
   -1.1176   -2.6112   -1.9232 C   0  0  0  0  0  0  0  0  0  0  0  0
   -0.2186   -3.6116   -2.2948 C   0  0  0  0  0  0  0  0  0  0  0  0
    0.3185    3.3974   -0.8126 C   0  0  0  0  0  0  0  0  0  0  0  0
   -0.9222    3.9997   -0.5622 C   0  0  0  0  0  0  0  0  0  0  0  0
    1.0853    3.8505   -1.8964 C   0  0  0  0  0  0  0  0  0  0  0  0
   -1.3868    5.0315   -1.3810 C   0  0  0  0  0  0  0  0  0  0  0  0
    0.6186    4.8820   -2.7140 C   0  0  0  0  0  0  0  0  0  0  0  0
   -0.6192    5.4687   -2.4590 C   0  0  0  0  0  0  0  0  0  0  0  0
    0.4283    2.3734    1.0709 H   0  0  0  0  0  0  0  0  0  0  0  0
    1.9095    2.3208    0.1212 H   0  0  0  0  0  0  0  0  0  0  0  0
    3.1791   -1.3194   -0.9016 H   0  0  0  0  0  0  0  0  0  0  0  0
   -1.3737   -0.6534   -1.0779 H   0  0  0  0  0  0  0  0  0  0  0  0
    1.8506   -4.2096   -2.3757 H   0  0  0  0  0  0  0  0  0  0  0  0
   -2.1845   -2.7636   -2.0737 H   0  0  0  0  0  0  0  0  0  0  0  0
   -0.5814   -4.5352   -2.7425 H   0  0  0  0  0  0  0  0  0  0  0  0
   -1.5343    3.6693    0.2737 H   0  0  0  0  0  0  0  0  0  0  0  0
    2.0543    3.4031   -2.1087 H   0  0  0  0  0  0  0  0  0  0  0  0
   -2.3503    5.4928   -1.1799 H   0  0  0  0  0  0  0  0  0  0  0  0
    1.2200    5.2256   -3.5519 H   0  0  0  0  0  0  0  0  0  0  0  0
   -0.9859    6.2654   -3.1011 H   0  0  0  0  0  0  0  0  0  0  0  0
  1  2  1  0  0  0  0
  1  3  2  0  0  0  0
  1  6  1  0  0  0  0
  2  4  1  0  0  0  0
  4 12  1  0  0  0  0
  4 18  1  0  0  0  0
  4 19  1  0  0  0  0
  5  7  1  0  0  0  0
  5 20  1  0  0  0  0
  6  7  2  0  0  0  0
  6  8  1  0  0  0  0
  7  9  1  0  0  0  0
  8 10  2  0  0  0  0
  8 21  1  0  0  0  0
  9 11  2  0  0  0  0
  9 22  1  0  0  0  0
 10 11  1  0  0  0  0
 10 23  1  0  0  0  0
 11 24  1  0  0  0  0
 12 13  2  0  0  0  0
 12 14  1  0  0  0  0
 13 15  1  0  0  0  0
 13 25  1  0  0  0  0
 14 16  2  0  0  0  0
 14 26  1  0  0  0  0
 15 17  2  0  0  0  0
 15 27  1  0  0  0  0
 16 17  1  0  0  0  0
 16 28  1  0  0  0  0
 17 29  1  0  0  0  0
M  END
>  <Mol_ID>
7066

>  <Formula>
C14H12O3

>  <MolWeight>
228.24328

>  <Cat>
E4079

>  <Name>
Benzyl salicylate

>  <Synonyms>
Benzyl 2-hydroxybenzoate

>  <Target>
Others

>  <Form>
Free base

>  <CAS>
118-58-1

>  <URL>
https://www.selleckchem.com/products/benzyl-salicylate.html

$$$$
