benzthiazide.cdx
 OpenBabel08302519573D

 40 42  0  0  0  0  0  0  0  0999 V2000
    0.0147   -0.5785    0.0145 C   0  0  0  0  0  0  0  0  0  0  0  0
   -0.1034    0.8075   -0.0141 C   0  0  0  0  0  0  0  0  0  0  0  0
    1.2132   -1.2979    0.0599 N   0  0  0  0  0  0  0  0  0  0  0  0
   -1.1686   -1.3296    0.0066 C   0  0  0  0  0  0  0  0  0  0  0  0
   -1.3460    1.4564   -0.0419 C   0  0  0  0  0  0  0  0  0  0  0  0
    1.3478    1.7690   -0.0201 S   0  0  0  0  0  0  0  0  0  0  0  0
    2.3688   -0.7253    0.0789 C   0  0  0  0  0  0  0  0  0  0  0  0
   -2.4215   -0.7128   -0.0195 C   0  0  0  0  0  0  0  0  0  0  0  0
   -2.5044    0.6812   -0.0370 C   0  0  0  0  0  0  0  0  0  0  0  0
    2.5642    0.6563    0.0462 N   0  0  0  0  0  0  0  0  0  0  0  0
    1.4420    2.4255   -1.3037 O   0  0  0  0  0  0  0  0  0  0  0  0
    1.3873    2.5134    1.2195 O   0  0  0  0  0  0  0  0  0  0  0  0
    3.6205   -1.5794    0.1405 C   0  0  0  0  0  0  0  0  0  0  0  0
   -4.0921    1.4565   -0.0171 S   0  0  0  0  0  0  0  0  0  0  0  0
    4.5933   -1.2240    1.6405 S   0  0  0  0  0  0  0  0  0  0  0  0
   -4.0401    2.3273    1.4175 N   0  0  0  0  0  0  0  0  0  0  0  0
   -4.1463    2.4233   -1.0902 O   0  0  0  0  0  0  0  0  0  0  0  0
   -5.1075    0.4553    0.1822 O   0  0  0  0  0  0  0  0  0  0  0  0
    3.4039   -1.7899    2.9024 C   0  0  0  0  0  0  0  0  0  0  0  0
    3.9591   -1.6483    4.2986 C   0  0  0  0  0  0  0  0  0  0  0  0
    3.8167   -0.4436    5.0019 C   0  0  0  0  0  0  0  0  0  0  0  0
    4.6348   -2.7137    4.9124 C   0  0  0  0  0  0  0  0  0  0  0  0
    4.3347   -0.3079    6.2918 C   0  0  0  0  0  0  0  0  0  0  0  0
    5.1513   -2.5766    6.2033 C   0  0  0  0  0  0  0  0  0  0  0  0
    5.0030   -1.3739    6.8908 C   0  0  0  0  0  0  0  0  0  0  0  0
   -1.1104   -2.4167    0.0251 H   0  0  0  0  0  0  0  0  0  0  0  0
   -1.4049    2.5429   -0.0599 H   0  0  0  0  0  0  0  0  0  0  0  0
   -3.3203   -1.3268   -0.0177 H   0  0  0  0  0  0  0  0  0  0  0  0
    3.4892    1.0500    0.2084 H   0  0  0  0  0  0  0  0  0  0  0  0
    3.3649   -2.6427    0.1020 H   0  0  0  0  0  0  0  0  0  0  0  0
    4.2368   -1.3450   -0.7338 H   0  0  0  0  0  0  0  0  0  0  0  0
   -4.3866    3.2726    1.2519 H   0  0  0  0  0  0  0  0  0  0  0  0
   -4.5510    1.8329    2.1485 H   0  0  0  0  0  0  0  0  0  0  0  0
    2.4828   -1.2032    2.8239 H   0  0  0  0  0  0  0  0  0  0  0  0
    3.1433   -2.8364    2.7102 H   0  0  0  0  0  0  0  0  0  0  0  0
    3.3003    0.4007    4.5498 H   0  0  0  0  0  0  0  0  0  0  0  0
    4.7649   -3.6591    4.3913 H   0  0  0  0  0  0  0  0  0  0  0  0
    4.2181    0.6310    6.8289 H   0  0  0  0  0  0  0  0  0  0  0  0
    5.6724   -3.4077    6.6729 H   0  0  0  0  0  0  0  0  0  0  0  0
    5.4109   -1.2650    7.8918 H   0  0  0  0  0  0  0  0  0  0  0  0
  1  2  2  0  0  0  0
  1  3  1  0  0  0  0
  1  4  1  0  0  0  0
  2  5  1  0  0  0  0
  2  6  1  0  0  0  0
  3  7  2  0  0  0  0
  4  8  2  0  0  0  0
  4 26  1  0  0  0  0
  5  9  2  0  0  0  0
  5 27  1  0  0  0  0
  6 10  1  0  0  0  0
  6 11  2  0  0  0  0
  6 12  2  0  0  0  0
  7 13  1  0  0  0  0
  7 10  1  0  0  0  0
  8  9  1  0  0  0  0
  8 28  1  0  0  0  0
  9 14  1  0  0  0  0
 10 29  1  0  0  0  0
 13 15  1  0  0  0  0
 13 30  1  0  0  0  0
 13 31  1  0  0  0  0
 14 16  1  0  0  0  0
 14 17  2  0  0  0  0
 14 18  2  0  0  0  0
 15 19  1  0  0  0  0
 16 32  1  0  0  0  0
 16 33  1  0  0  0  0
 19 20  1  0  0  0  0
 19 34  1  0  0  0  0
 19 35  1  0  0  0  0
 20 21  2  0  0  0  0
 20 22  1  0  0  0  0
 21 23  1  0  0  0  0
 21 36  1  0  0  0  0
 22 24  2  0  0  0  0
 22 37  1  0  0  0  0
 23 25  2  0  0  0  0
 23 38  1  0  0  0  0
 24 25  1  0  0  0  0
 24 39  1  0  0  0  0
 25 40  1  0  0  0  0
M  END
>  <Mol_ID>
2278

>  <Formula>
C15H14ClN3O4S3

>  <MolWeight>
431.93736

>  <Cat>
S4308

>  <Name>
Benzthiazide

>  <Synonyms>
Benzothiazide

>  <Target>
Others

>  <Form>
Free Base

>  <CAS>
91-33-8

>  <URL>
http://www.selleckchem.com/products/benzthiazide.html

$$$$
