Benzydamine hydrochloride.cdx
 OpenBabel08302522043D

 46 48  0  0  0  0  0  0  0  0999 V2000
   -1.9117   -1.5376    0.1054 C   0  0  0  0  0  0  0  0  0  0  0  0
   -1.8984   -0.3257    0.7986 C   0  0  0  0  0  0  0  0  0  0  0  0
   -0.7528    0.4894    0.8131 C   0  0  0  0  0  0  0  0  0  0  0  0
    0.4163    0.0220    0.1860 C   0  0  0  0  0  0  0  0  0  0  0  0
    0.4125   -1.2755   -0.3204 C   0  0  0  0  0  0  0  0  0  0  0  0
   -0.7448   -2.0479   -0.4610 C   0  0  0  0  0  0  0  0  0  0  0  0
    1.7021    0.5043   -0.1753 C   0  0  0  0  0  0  0  0  0  0  0  0
    2.5271   -0.4732   -0.5514 N   0  0  0  0  0  0  0  0  0  0  0  0
    1.7447   -1.5718   -0.4882 N   0  0  0  0  0  0  0  0  0  0  0  0
    2.1283    1.7913   -0.1913 O   0  0  0  0  0  0  0  0  0  0  0  0
    2.3430   -2.8594   -0.1522 C   0  0  0  0  0  0  0  0  0  0  0  0
    2.7140   -3.6550   -1.3616 C   0  0  0  0  0  0  0  0  0  0  0  0
    3.7056   -3.1780   -2.2366 C   0  0  0  0  0  0  0  0  0  0  0  0
    4.0711   -3.9001   -3.3653 C   0  0  0  0  0  0  0  0  0  0  0  0
    3.4746   -5.1249   -3.6142 C   0  0  0  0  0  0  0  0  0  0  0  0
    2.5134   -5.6373   -2.7423 C   0  0  0  0  0  0  0  0  0  0  0  0
    2.1324   -4.9015   -1.6204 C   0  0  0  0  0  0  0  0  0  0  0  0
    3.2931    2.0333   -1.0116 C   0  0  0  0  0  0  0  0  0  0  0  0
    2.9778    2.0043   -2.5142 C   0  0  0  0  0  0  0  0  0  0  0  0
    4.1567    2.4257   -3.4116 C   0  0  0  0  0  0  0  0  0  0  0  0
    5.3760    1.6011   -3.3103 N   0  0  0  0  0  0  0  0  0  0  0  0
    5.1218    0.2186   -3.7090 C   0  0  0  0  0  0  0  0  0  0  0  0
    6.4653    2.1887   -4.0930 C   0  0  0  0  0  0  0  0  0  0  0  0
   -2.8330   -2.1113    0.0316 H   0  0  0  0  0  0  0  0  0  0  0  0
   -2.7987   -0.0007    1.3153 H   0  0  0  0  0  0  0  0  0  0  0  0
   -0.7646    1.4446    1.3294 H   0  0  0  0  0  0  0  0  0  0  0  0
   -0.7329   -3.0026   -0.9770 H   0  0  0  0  0  0  0  0  0  0  0  0
    3.2221   -2.6642    0.4745 H   0  0  0  0  0  0  0  0  0  0  0  0
    1.6236   -3.4011    0.4732 H   0  0  0  0  0  0  0  0  0  0  0  0
    4.1893   -2.2230   -2.0335 H   0  0  0  0  0  0  0  0  0  0  0  0
    4.8267   -3.5103   -4.0451 H   0  0  0  0  0  0  0  0  0  0  0  0
    3.7581   -5.7077   -4.4906 H   0  0  0  0  0  0  0  0  0  0  0  0
    2.0634   -6.6070   -2.9321 H   0  0  0  0  0  0  0  0  0  0  0  0
    1.3879   -5.3144   -0.9512 H   0  0  0  0  0  0  0  0  0  0  0  0
    3.6327    3.0432   -0.7534 H   0  0  0  0  0  0  0  0  0  0  0  0
    4.1179    1.3624   -0.7427 H   0  0  0  0  0  0  0  0  0  0  0  0
    2.6142    1.0155   -2.8171 H   0  0  0  0  0  0  0  0  0  0  0  0
    2.1361    2.6826   -2.7091 H   0  0  0  0  0  0  0  0  0  0  0  0
    3.8032    2.4280   -4.4530 H   0  0  0  0  0  0  0  0  0  0  0  0
    4.4082    3.4667   -3.1722 H   0  0  0  0  0  0  0  0  0  0  0  0
    4.4828    0.1364   -4.5947 H   0  0  0  0  0  0  0  0  0  0  0  0
    6.0491   -0.3306   -3.9108 H   0  0  0  0  0  0  0  0  0  0  0  0
    4.6412   -0.3010   -2.8787 H   0  0  0  0  0  0  0  0  0  0  0  0
    6.1310    2.5979   -5.0527 H   0  0  0  0  0  0  0  0  0  0  0  0
    6.9325    2.9935   -3.5147 H   0  0  0  0  0  0  0  0  0  0  0  0
    7.2618    1.4634   -4.2996 H   0  0  0  0  0  0  0  0  0  0  0  0
  1  2  2  0  0  0  0
  1 24  1  0  0  0  0
  2  3  1  0  0  0  0
  2 25  1  0  0  0  0
  3  4  2  0  0  0  0
  3 26  1  0  0  0  0
  4  5  1  0  0  0  0
  4  7  1  0  0  0  0
  5  6  2  0  0  0  0
  6  1  1  0  0  0  0
  6 27  1  0  0  0  0
  7  8  2  0  0  0  0
  7 10  1  0  0  0  0
  8  9  1  0  0  0  0
  9  5  1  0  0  0  0
  9 11  1  0  0  0  0
 10 18  1  0  0  0  0
 11 12  1  0  0  0  0
 11 28  1  0  0  0  0
 11 29  1  0  0  0  0
 12 13  2  0  0  0  0
 13 14  1  0  0  0  0
 13 30  1  0  0  0  0
 14 15  2  0  0  0  0
 14 31  1  0  0  0  0
 15 16  1  0  0  0  0
 15 32  1  0  0  0  0
 16 17  2  0  0  0  0
 16 33  1  0  0  0  0
 17 12  1  0  0  0  0
 17 34  1  0  0  0  0
 18 19  1  0  0  0  0
 18 35  1  0  0  0  0
 18 36  1  0  0  0  0
 19 20  1  0  0  0  0
 19 37  1  0  0  0  0
 19 38  1  0  0  0  0
 20 21  1  0  0  0  0
 20 39  1  0  0  0  0
 20 40  1  0  0  0  0
 21 22  1  0  0  0  0
 21 23  1  0  0  0  0
 22 41  1  0  0  0  0
 22 42  1  0  0  0  0
 22 43  1  0  0  0  0
 23 44  1  0  0  0  0
 23 45  1  0  0  0  0
 23 46  1  0  0  0  0
M  END
>  <Mol_ID>
1267

>  <Formula>
C19H24ClN3O

>  <MolWeight>
345.86636

>  <Cat>
S4165

>  <Name>
Benzydamine HCl

>  <Synonyms>
AF864

>  <Target>
Immunology & Inflammation related

>  <Form>
Hydrochloride

>  <CAS>
132-69-4

>  <URL>
http://selleckchem.com/products/benzydamine-hcl.html

$$$$
