Benzoic acid .cdx
 OpenBabel08302522053D

 15 15  0  0  0  0  0  0  0  0999 V2000
    1.3887   -0.2014   -0.0233 C   0  0  0  0  0  0  0  0  0  0  0  0
    0.5062   -1.2811   -0.0799 C   0  0  0  0  0  0  0  0  0  0  0  0
   -0.8692   -1.0636   -0.0204 C   0  0  0  0  0  0  0  0  0  0  0  0
   -1.3653    0.2359    0.0874 C   0  0  0  0  0  0  0  0  0  0  0  0
   -0.4856    1.3254    0.1340 C   0  0  0  0  0  0  0  0  0  0  0  0
    0.8973    1.1014    0.0919 C   0  0  0  0  0  0  0  0  0  0  0  0
   -1.0688    2.6842    0.2836 C   0  0  0  0  0  0  0  0  0  0  0  0
   -0.3281    3.6694   -0.2656 O   0  0  0  0  0  0  0  0  0  0  0  0
   -2.1438    2.8861    0.8234 O   0  0  0  0  0  0  0  0  0  0  0  0
    2.4613   -0.3800   -0.0516 H   0  0  0  0  0  0  0  0  0  0  0  0
    0.8919   -2.2957   -0.1549 H   0  0  0  0  0  0  0  0  0  0  0  0
   -1.5560   -1.9060   -0.0473 H   0  0  0  0  0  0  0  0  0  0  0  0
   -2.4413    0.3987    0.1461 H   0  0  0  0  0  0  0  0  0  0  0  0
    1.6081    1.9175    0.1837 H   0  0  0  0  0  0  0  0  0  0  0  0
    0.4094    3.3703   -0.8269 H   0  0  0  0  0  0  0  0  0  0  0  0
  1  2  2  0  0  0  0
  1 10  1  0  0  0  0
  2  3  1  0  0  0  0
  2 11  1  0  0  0  0
  3  4  2  0  0  0  0
  3 12  1  0  0  0  0
  4  5  1  0  0  0  0
  4 13  1  0  0  0  0
  5  6  2  0  0  0  0
  5  7  1  0  0  0  0
  6  1  1  0  0  0  0
  6 14  1  0  0  0  0
  7  8  1  0  0  0  0
  7  9  2  0  0  0  0
  8 15  1  0  0  0  0
M  END
>  <Mol_ID>
1341

>  <Formula>
C7H6O2

>  <MolWeight>
122.12134

>  <Cat>
S4161

>  <Name>
Benzoic Acid

>  <Synonyms>
FEMA 2131

>  <Target>
Others

>  <Form>
free base

>  <CAS>
65-85-0

>  <URL>
http://selleckchem.com/products/benzoic-acid.html

$$$$
