bephenium hydroxynaphthoate.cdx
 OpenBabel08302519573D

 62 64  0  0  0  0  0  0  0  0999 V2000
   -1.5265    1.0457   -1.2427 C   0  0  0  0  0  0  0  0  0  0  0  0
   -1.3242   -0.3245   -1.5377 C   0  0  0  0  0  0  0  0  0  0  0  0
   -0.4283    1.8734   -0.9902 C   0  0  0  0  0  0  0  0  0  0  0  0
   -2.8209    1.5166   -1.0373 C   0  0  0  0  0  0  0  0  0  0  0  0
   -0.0310   -0.8242   -1.6085 C   0  0  0  0  0  0  0  0  0  0  0  0
   -2.4148   -1.1973   -1.5888 C   0  0  0  0  0  0  0  0  0  0  0  0
    0.8287    1.3010   -0.7766 C   0  0  0  0  0  0  0  0  0  0  0  0
   -3.8833    0.6189   -0.9692 C   0  0  0  0  0  0  0  0  0  0  0  0
    0.9975   -0.0502   -1.1015 C   0  0  0  0  0  0  0  0  0  0  0  0
   -3.6800   -0.7361   -1.2341 C   0  0  0  0  0  0  0  0  0  0  0  0
    1.9298    2.0739   -0.1015 C   0  0  0  0  0  0  0  0  0  0  0  0
    2.1842   -0.6821   -0.8153 O   0  0  0  0  0  0  0  0  0  0  0  0
    3.0436    1.4396    0.0088 O   0  0  0  0  0  0  0  0  0  0  0  0
    1.6961    3.2449    0.3016 O   0  5  0  0  0  0  0  0  0  0  0  0
    2.4866   -3.6676   -1.7410 C   0  0  0  0  0  0  0  0  0  0  0  0
    3.8810   -3.0273   -1.8381 C   0  0  0  0  0  0  0  0  0  0  0  0
    1.8773   -4.4720   -2.7130 C   0  0  0  0  0  0  0  0  0  0  0  0
    1.8112   -3.5926   -0.4898 C   0  0  0  0  0  0  0  0  0  0  0  0
    4.4644   -2.1603   -3.0545 N   0  3  0  0  0  0  0  0  0  0  0  0
    0.6287   -5.0914   -2.4762 C   0  0  0  0  0  0  0  0  0  0  0  0
    0.5643   -4.1885   -0.2505 C   0  0  0  0  0  0  0  0  0  0  0  0
    3.4102   -1.1768   -3.6424 C   0  0  0  0  0  0  0  0  0  0  0  0
    5.6223   -1.3205   -2.4643 C   0  0  0  0  0  0  0  0  0  0  0  0
    5.0571   -3.0552   -4.1183 C   0  0  0  0  0  0  0  0  0  0  0  0
   -0.0309   -4.9352   -1.2546 C   0  0  0  0  0  0  0  0  0  0  0  0
    3.9623   -0.1187   -4.6360 C   0  0  0  0  0  0  0  0  0  0  0  0
    2.9194    0.7382   -5.1281 O   0  0  0  0  0  0  0  0  0  0  0  0
    2.8440    1.9928   -4.5741 C   0  0  0  0  0  0  0  0  0  0  0  0
    3.1730    2.3099   -3.2628 C   0  0  0  0  0  0  0  0  0  0  0  0
    2.3332    3.0063   -5.3967 C   0  0  0  0  0  0  0  0  0  0  0  0
    2.9997    3.6100   -2.7779 C   0  0  0  0  0  0  0  0  0  0  0  0
    2.1557    4.3077   -4.9136 C   0  0  0  0  0  0  0  0  0  0  0  0
    2.4863    4.6119   -3.6034 C   0  0  0  0  0  0  0  0  0  0  0  0
   -0.5631    2.9325   -0.7768 H   0  0  0  0  0  0  0  0  0  0  0  0
   -2.9882    2.5673   -0.7982 H   0  0  0  0  0  0  0  0  0  0  0  0
    0.1450   -1.8580   -1.8807 H   0  0  0  0  0  0  0  0  0  0  0  0
   -2.2633   -2.2589   -1.7683 H   0  0  0  0  0  0  0  0  0  0  0  0
   -4.8592    0.9696   -0.6507 H   0  0  0  0  0  0  0  0  0  0  0  0
   -4.4954   -1.4423   -1.1128 H   0  0  0  0  0  0  0  0  0  0  0  0
    2.7303    0.0106   -0.3496 H   0  0  0  0  0  0  0  0  0  0  0  0
    4.0070   -2.3738   -0.9676 H   0  0  0  0  0  0  0  0  0  0  0  0
    4.6065   -3.8400   -1.7049 H   0  0  0  0  0  0  0  0  0  0  0  0
    2.3578   -4.6721   -3.6623 H   0  0  0  0  0  0  0  0  0  0  0  0
    2.2383   -3.0165    0.3336 H   0  0  0  0  0  0  0  0  0  0  0  0
    0.1630   -5.7111   -3.2436 H   0  0  0  0  0  0  0  0  0  0  0  0
    0.0649   -4.0590    0.7124 H   0  0  0  0  0  0  0  0  0  0  0  0
    2.6195   -1.7762   -4.1023 H   0  0  0  0  0  0  0  0  0  0  0  0
    2.9975   -0.6386   -2.8066 H   0  0  0  0  0  0  0  0  0  0  0  0
    6.3011   -1.9937   -1.9262 H   0  0  0  0  0  0  0  0  0  0  0  0
    6.1767   -0.8567   -3.2881 H   0  0  0  0  0  0  0  0  0  0  0  0
    5.2112   -0.5589   -1.8009 H   0  0  0  0  0  0  0  0  0  0  0  0
    5.8361   -3.6744   -3.6583 H   0  0  0  0  0  0  0  0  0  0  0  0
    4.2710   -3.6699   -4.5496 H   0  0  0  0  0  0  0  0  0  0  0  0
    5.5215   -2.4306   -4.8897 H   0  0  0  0  0  0  0  0  0  0  0  0
   -1.0055   -5.4026   -1.0829 H   0  0  0  0  0  0  0  0  0  0  0  0
    4.7847    0.4742   -4.2200 H   0  0  0  0  0  0  0  0  0  0  0  0
    4.3728   -0.6225   -5.5170 H   0  0  0  0  0  0  0  0  0  0  0  0
    3.5176    1.5648   -2.5553 H   0  0  0  0  0  0  0  0  0  0  0  0
    2.0552    2.7832   -6.4199 H   0  0  0  0  0  0  0  0  0  0  0  0
    3.2242    3.8369   -1.7348 H   0  0  0  0  0  0  0  0  0  0  0  0
    1.7457    5.0739   -5.5619 H   0  0  0  0  0  0  0  0  0  0  0  0
    2.3255    5.6046   -3.1952 H   0  0  0  0  0  0  0  0  0  0  0  0
  1  2  1  0  0  0  0
  1  3  2  0  0  0  0
  1  4  1  0  0  0  0
  2  5  2  0  0  0  0
  2  6  1  0  0  0  0
  3  7  1  0  0  0  0
  3 34  1  0  0  0  0
  4  8  2  0  0  0  0
  4 35  1  0  0  0  0
  5  9  1  0  0  0  0
  5 36  1  0  0  0  0
  6 10  2  0  0  0  0
  6 37  1  0  0  0  0
  7 11  1  0  0  0  0
  7  9  2  0  0  0  0
  8 10  1  0  0  0  0
  8 38  1  0  0  0  0
  9 12  1  0  0  0  0
 10 39  1  0  0  0  0
 11 13  2  0  0  0  0
 11 14  1  0  0  0  0
 12 40  1  0  0  0  0
 15 16  1  0  0  0  0
 15 17  2  0  0  0  0
 15 18  1  0  0  0  0
 16 19  1  0  0  0  0
 16 41  1  0  0  0  0
 16 42  1  0  0  0  0
 17 20  1  0  0  0  0
 17 43  1  0  0  0  0
 18 21  2  0  0  0  0
 18 44  1  0  0  0  0
 19 22  1  0  0  0  0
 19 23  1  0  0  0  0
 19 24  1  0  0  0  0
 20 25  2  0  0  0  0
 20 45  1  0  0  0  0
 21 25  1  0  0  0  0
 21 46  1  0  0  0  0
 22 26  1  0  0  0  0
 22 47  1  0  0  0  0
 22 48  1  0  0  0  0
 23 49  1  0  0  0  0
 23 50  1  0  0  0  0
 23 51  1  0  0  0  0
 24 52  1  0  0  0  0
 24 53  1  0  0  0  0
 24 54  1  0  0  0  0
 25 55  1  0  0  0  0
 26 27  1  0  0  0  0
 26 56  1  0  0  0  0
 26 57  1  0  0  0  0
 27 28  1  0  0  0  0
 28 29  2  0  0  0  0
 28 30  1  0  0  0  0
 29 31  1  0  0  0  0
 29 58  1  0  0  0  0
 30 32  2  0  0  0  0
 30 59  1  0  0  0  0
 31 33  2  0  0  0  0
 31 60  1  0  0  0  0
 32 33  1  0  0  0  0
 32 61  1  0  0  0  0
 33 62  1  0  0  0  0
M  CHG  2  14  -1  19   1
M  END
>  <Mol_ID>
2279

>  <Formula>
C28H29NO4

>  <MolWeight>
443.53416

>  <Cat>
S4389

>  <Name>
Bephenium Hydroxynaphthoate

>  <Synonyms>
NSC 759245

>  <Target>
AChR,Parasite

>  <Form>
hydroxynaphthoa

>  <CAS>
3818-50-6

>  <URL>
http://www.selleckchem.com/products/bephenium-hydroxynaphthoate.html

$$$$
