Bezafibrate .cdx
 OpenBabel08302522053D

 45 46  0  0  0  0  0  0  0  0999 V2000
   -1.3288   -4.8270    1.7627 C   0  0  0  0  0  0  0  0  0  0  0  0
   -1.8320   -5.4116    0.6020 C   0  0  0  0  0  0  0  0  0  0  0  0
   -2.7947   -4.7445   -0.1545 C   0  0  0  0  0  0  0  0  0  0  0  0
   -3.2721   -3.4970    0.2583 C   0  0  0  0  0  0  0  0  0  0  0  0
   -2.7866   -2.9127    1.4370 C   0  0  0  0  0  0  0  0  0  0  0  0
   -1.8056   -3.5831    2.1807 C   0  0  0  0  0  0  0  0  0  0  0  0
   -3.3588   -1.6562    1.9990 C   0  0  0  0  0  0  0  0  0  0  0  0
   -3.2674   -1.4239    3.2012 O   0  0  0  0  0  0  0  0  0  0  0  0
   -4.0126   -0.8132    1.1210 N   0  0  0  0  0  0  0  0  0  0  0  0
   -4.8433    0.2743    1.5981 C   0  0  0  0  0  0  0  0  0  0  0  0
   -4.1073    1.6155    1.7034 C   0  0  0  0  0  0  0  0  0  0  0  0
   -4.9953    2.7895    2.0683 C   0  0  0  0  0  0  0  0  0  0  0  0
   -6.1459    2.6329    2.8485 C   0  0  0  0  0  0  0  0  0  0  0  0
   -6.9157    3.7334    3.2307 C   0  0  0  0  0  0  0  0  0  0  0  0
   -6.5271    5.0232    2.8932 C   0  0  0  0  0  0  0  0  0  0  0  0
   -5.4032    5.1918    2.0832 C   0  0  0  0  0  0  0  0  0  0  0  0
   -4.6379    4.0885    1.6807 C   0  0  0  0  0  0  0  0  0  0  0  0
   -7.1552    6.1714    3.2760 O   0  0  0  0  0  0  0  0  0  0  0  0
   -7.8626    6.2662    4.5303 C   0  0  0  0  0  0  0  0  0  0  0  0
   -9.3144    5.7996    4.3626 C   0  0  0  0  0  0  0  0  0  0  0  0
   -7.1181    5.6317    5.7185 C   0  0  0  0  0  0  0  0  0  0  0  0
   -7.9261    7.7773    4.8377 C   0  0  0  0  0  0  0  0  0  0  0  0
   -7.4402    8.6963    4.1976 O   0  0  0  0  0  0  0  0  0  0  0  0
   -8.6103    8.0627    5.9732 O   0  0  0  0  0  0  0  0  0  0  0  0
   -0.5817   -5.3478    2.3563 H   0  0  0  0  0  0  0  0  0  0  0  0
   -1.4842   -6.3952    0.2952 H   0  0  0  0  0  0  0  0  0  0  0  0
   -3.1936   -5.2095   -1.0529 H   0  0  0  0  0  0  0  0  0  0  0  0
   -4.0557   -3.0277   -0.3274 H   0  0  0  0  0  0  0  0  0  0  0  0
   -1.4285   -3.1466    3.1038 H   0  0  0  0  0  0  0  0  0  0  0  0
   -3.9459   -0.9627    0.1251 H   0  0  0  0  0  0  0  0  0  0  0  0
   -5.6848    0.3556    0.9009 H   0  0  0  0  0  0  0  0  0  0  0  0
   -5.2505   -0.0182    2.5728 H   0  0  0  0  0  0  0  0  0  0  0  0
   -3.3089    1.5424    2.4523 H   0  0  0  0  0  0  0  0  0  0  0  0
   -3.6229    1.8216    0.7403 H   0  0  0  0  0  0  0  0  0  0  0  0
   -6.4670    1.6555    3.1977 H   0  0  0  0  0  0  0  0  0  0  0  0
   -7.7981    3.5313    3.8227 H   0  0  0  0  0  0  0  0  0  0  0  0
   -5.1007    6.1938    1.7861 H   0  0  0  0  0  0  0  0  0  0  0  0
   -3.7493    4.2590    1.0763 H   0  0  0  0  0  0  0  0  0  0  0  0
   -9.4013    4.7707    4.0118 H   0  0  0  0  0  0  0  0  0  0  0  0
   -9.8775    5.8778    5.2986 H   0  0  0  0  0  0  0  0  0  0  0  0
   -9.8270    6.4148    3.6126 H   0  0  0  0  0  0  0  0  0  0  0  0
   -6.1138    6.0631    5.8125 H   0  0  0  0  0  0  0  0  0  0  0  0
   -7.6442    5.7994    6.6642 H   0  0  0  0  0  0  0  0  0  0  0  0
   -6.9860    4.5524    5.6282 H   0  0  0  0  0  0  0  0  0  0  0  0
   -8.5500    9.0390    6.0368 H   0  0  0  0  0  0  0  0  0  0  0  0
  1  2  2  0  0  0  0
  1 25  1  0  0  0  0
  2  3  1  0  0  0  0
  2 26  1  0  0  0  0
  3  4  2  0  0  0  0
  3 27  1  0  0  0  0
  4  5  1  0  0  0  0
  4 28  1  0  0  0  0
  5  6  2  0  0  0  0
  5  7  1  0  0  0  0
  6  1  1  0  0  0  0
  6 29  1  0  0  0  0
  7  8  2  0  0  0  0
  7  9  1  0  0  0  0
  9 10  1  0  0  0  0
  9 30  1  0  0  0  0
 10 11  1  0  0  0  0
 10 31  1  0  0  0  0
 10 32  1  0  0  0  0
 11 12  1  0  0  0  0
 11 33  1  0  0  0  0
 11 34  1  0  0  0  0
 12 13  2  0  0  0  0
 13 14  1  0  0  0  0
 13 35  1  0  0  0  0
 14 15  2  0  0  0  0
 14 36  1  0  0  0  0
 15 16  1  0  0  0  0
 15 18  1  0  0  0  0
 16 17  2  0  0  0  0
 16 37  1  0  0  0  0
 17 12  1  0  0  0  0
 17 38  1  0  0  0  0
 18 19  1  0  0  0  0
 19 20  1  0  0  0  0
 19 21  1  0  0  0  0
 19 22  1  0  0  0  0
 20 39  1  0  0  0  0
 20 40  1  0  0  0  0
 20 41  1  0  0  0  0
 21 42  1  0  0  0  0
 21 43  1  0  0  0  0
 21 44  1  0  0  0  0
 22 23  2  0  0  0  0
 22 24  1  0  0  0  0
 24 45  1  0  0  0  0
M  END
>  <Mol_ID>
1343

>  <Formula>
C19H20ClNO4

>  <MolWeight>
361.8194

>  <Cat>
S4159

>  <Name>
Bezafibrate

>  <Synonyms>
BM 15075

>  <Target>
PPAR

>  <Form>
free base

>  <CAS>
41859-67-0

>  <URL>
http://selleckchem.com/products/bezafibrate.html

$$$$
