BI 1015550
 OpenBabel08302521373D

 55 59  0  0  1  0  0  0  0  0999 V2000
    0.9750    0.4413   -0.0684 N   0  0  0  0  0  0  0  0  0  0  0  0
   -1.3400    1.8727    1.3840 O   0  0  0  0  0  0  0  0  0  0  0  0
    2.2251   -1.7180   -0.0626 C   0  0  0  0  0  0  0  0  0  0  0  0
    1.8324   -2.1785   -1.3546 O   0  0  0  0  0  0  0  0  0  0  0  0
    0.2496    0.7668   -1.2199 C   0  0  0  0  0  0  0  0  0  0  0  0
   -0.8046    1.6415   -1.1719 C   0  0  0  0  0  0  0  0  0  0  0  0
    0.5938    0.1799   -2.3868 N   0  0  0  0  0  0  0  0  0  0  0  0
   -1.5795    1.7375   -2.3017 C   0  0  0  0  0  0  0  0  0  0  0  0
   -1.3712    2.6973    0.1341 S   0  0  3  0  0  0  0  0  0  0  0  0
   -0.1068    0.4586   -3.4985 C   0  0  0  0  0  0  0  0  0  0  0  0
   -1.2411    1.1881   -3.4723 N   0  0  0  0  0  0  0  0  0  0  0  0
   -2.8308    2.5510   -2.1251 C   0  0  0  0  0  0  0  0  0  0  0  0
   -3.0466    2.6428   -0.6110 C   0  0  0  0  0  0  0  0  0  0  0  0
    2.2682   -0.1856   -0.0016 C   0  0  0  0  0  0  0  0  0  0  0  0
    3.0729    0.4071    1.1985 C   0  0  0  0  0  0  0  0  0  0  0  0
    3.3154    0.5136   -0.9164 C   0  0  0  0  0  0  0  0  0  0  0  0
    4.3002    0.4472    0.2665 C   0  0  0  0  0  0  0  0  0  0  0  0
    0.3357   -0.0338   -4.7081 N   0  0  0  0  0  0  0  0  0  0  0  0
    1.5862   -0.7794   -4.7896 C   0  0  0  0  0  0  0  0  0  0  0  0
   -0.1813    0.5222   -5.9525 C   0  0  0  0  0  0  0  0  0  0  0  0
    2.6780    0.0615   -5.4469 C   0  0  0  0  0  0  0  0  0  0  0  0
    0.8805    1.3859   -6.6318 C   0  0  0  0  0  0  0  0  0  0  0  0
    2.2031    0.6227   -6.7956 C   0  0  3  0  0  0  0  0  0  0  0  0
    3.2893    1.4711   -7.4198 C   0  0  0  0  0  0  0  0  0  0  0  0
    4.1745    0.8481   -8.2240 N   0  0  0  0  0  0  0  0  0  0  0  0
    3.3497    2.7774   -7.0968 N   0  0  0  0  0  0  0  0  0  0  0  0
    5.1624    1.6080   -8.7352 C   0  0  0  0  0  0  0  0  0  0  0  0
    4.3537    3.4892   -7.6452 C   0  0  0  0  0  0  0  0  0  0  0  0
    5.2969    2.9500   -8.4799 C   0  0  0  0  0  0  0  0  0  0  0  0
    0.6328    0.8906    0.7827 H   0  0  0  0  0  0  0  0  0  0  0  0
    3.2128   -2.1507    0.1346 H   0  0  0  0  0  0  0  0  0  0  0  0
    1.5350   -2.1365    0.6771 H   0  0  0  0  0  0  0  0  0  0  0  0
    1.2460   -1.4858   -1.7257 H   0  0  0  0  0  0  0  0  0  0  0  0
   -2.6773    3.5428   -2.5620 H   0  0  0  0  0  0  0  0  0  0  0  0
   -3.6890    2.0752   -2.6109 H   0  0  0  0  0  0  0  0  0  0  0  0
   -3.6255    3.5226   -0.3180 H   0  0  0  0  0  0  0  0  0  0  0  0
   -3.5391    1.7422   -0.2265 H   0  0  0  0  0  0  0  0  0  0  0  0
    2.7518    1.4074    1.5194 H   0  0  0  0  0  0  0  0  0  0  0  0
    3.1668   -0.2244    2.0861 H   0  0  0  0  0  0  0  0  0  0  0  0
    3.6142   -0.0374   -1.8126 H   0  0  0  0  0  0  0  0  0  0  0  0
    3.0596    1.5399   -1.2089 H   0  0  0  0  0  0  0  0  0  0  0  0
    4.9574    1.3112    0.3805 H   0  0  0  0  0  0  0  0  0  0  0  0
    4.9053   -0.4661    0.2905 H   0  0  0  0  0  0  0  0  0  0  0  0
    1.4086   -1.6782   -5.3925 H   0  0  0  0  0  0  0  0  0  0  0  0
    1.9471   -1.1416   -3.8231 H   0  0  0  0  0  0  0  0  0  0  0  0
   -1.0916    1.1185   -5.8237 H   0  0  0  0  0  0  0  0  0  0  0  0
   -0.4571   -0.3075   -6.6139 H   0  0  0  0  0  0  0  0  0  0  0  0
    3.5712   -0.5601   -5.5914 H   0  0  0  0  0  0  0  0  0  0  0  0
    2.9712    0.8797   -4.7767 H   0  0  0  0  0  0  0  0  0  0  0  0
    1.0344    2.2956   -6.0367 H   0  0  0  0  0  0  0  0  0  0  0  0
    0.5123    1.7099   -7.6139 H   0  0  0  0  0  0  0  0  0  0  0  0
    2.0189   -0.2219   -7.4744 H   0  0  0  0  0  0  0  0  0  0  0  0
    5.8658    1.0850   -9.3755 H   0  0  0  0  0  0  0  0  0  0  0  0
    4.3725    4.5417   -7.3803 H   0  0  0  0  0  0  0  0  0  0  0  0
    6.0974    3.5401   -8.9033 H   0  0  0  0  0  0  0  0  0  0  0  0
  1  5  1  0  0  0  0
  1 14  1  0  0  0  0
  1 30  1  0  0  0  0
  3  4  1  0  0  0  0
  3 14  1  0  0  0  0
  3 31  1  0  0  0  0
  3 32  1  0  0  0  0
  4 33  1  0  0  0  0
  5  6  2  0  0  0  0
  5  7  1  0  0  0  0
  6  8  1  0  0  0  0
  7 10  2  0  0  0  0
  8 11  2  0  0  0  0
  8 12  1  0  0  0  0
  9  2  2  0  0  0  0
  9  6  1  0  0  0  0
  9 13  1  0  0  0  0
 10 11  1  0  0  0  0
 10 18  1  0  0  0  0
 12 13  1  0  0  0  0
 12 34  1  0  0  0  0
 12 35  1  0  0  0  0
 13 36  1  0  0  0  0
 13 37  1  0  0  0  0
 14 15  1  0  0  0  0
 14 16  1  0  0  0  0
 15 17  1  0  0  0  0
 15 38  1  0  0  0  0
 15 39  1  0  0  0  0
 16 17  1  0  0  0  0
 16 40  1  0  0  0  0
 16 41  1  0  0  0  0
 17 42  1  0  0  0  0
 17 43  1  0  0  0  0
 18 19  1  0  0  0  0
 18 20  1  0  0  0  0
 19 21  1  0  0  0  0
 19 44  1  0  0  0  0
 19 45  1  0  0  0  0
 20 22  1  0  0  0  0
 20 46  1  0  0  0  0
 20 47  1  0  0  0  0
 21 23  1  0  0  0  0
 21 48  1  0  0  0  0
 21 49  1  0  0  0  0
 22 23  1  0  0  0  0
 22 50  1  0  0  0  0
 22 51  1  0  0  0  0
 23 24  1  0  0  0  0
 23 52  1  0  0  0  0
 24 25  2  0  0  0  0
 24 26  1  0  0  0  0
 25 27  1  0  0  0  0
 26 28  2  0  0  0  0
 27 29  2  0  0  0  0
 27 53  1  0  0  0  0
 28 29  1  0  0  0  0
 28 54  1  0  0  0  0
 29 55  1  0  0  0  0
M  END
>  <Mol_ID>
7530

>  <Formula>
C20H25ClN6O2S

>  <MolWeight>
448.9695

>  <Cat>
E1382

>  <Name>
BI 1015550

>  <Target>
PDE

>  <Form>
free base

>  <CAS>
1423719-30-5

>  <URL>
https://www.selleckchem.com/products/bi-1015550.html

$$$$
