Biapenem.cdx
 OpenBabel08302520433D

 42 45  0  0  0  0  0  0  0  0999 V2000
   -2.5003   -0.2420    2.1362 N   0  3  0  0  0  0  0  0  0  0  0  0
   -1.3140   -0.0215    1.6507 N   0  0  0  0  0  0  0  0  0  0  0  0
   -0.3983   -0.2078    2.6664 C   0  0  0  0  0  0  0  0  0  0  0  0
   -1.0215   -0.5629    3.8500 N   0  0  0  0  0  0  0  0  0  0  0  0
   -2.3561   -0.5747    3.4698 C   0  0  0  0  0  0  0  0  0  0  0  0
   -1.3078    0.2515    0.2356 C   0  0  0  0  0  0  0  0  0  0  0  0
   -2.7928    0.1332   -0.1788 C   0  0  3  0  0  0  0  0  0  0  0  0
   -3.5576   -0.1402    1.1520 C   0  0  0  0  0  0  0  0  0  0  0  0
   -3.0931   -1.2474   -1.3299 S   0  0  0  0  0  0  0  0  0  0  0  0
   -2.2976   -0.0876   -4.9913 N   0  0  0  0  0  0  0  0  0  0  0  0
   -2.8916    0.1196   -3.7427 C   0  0  0  0  0  0  0  0  0  0  0  0
   -2.4076   -0.7437   -2.8346 C   0  0  0  0  0  0  0  0  0  0  0  0
   -1.2473   -1.5320   -3.4119 C   0  0  1  0  0  0  0  0  0  0  0  0
   -1.4182   -1.2744   -4.9122 C   0  0  2  0  0  0  0  0  0  0  0  0
   -0.4114   -0.4827   -5.7885 C   0  0  2  0  0  0  0  0  0  0  0  0
   -1.3435    0.7163   -5.5533 C   0  0  0  0  0  0  0  0  0  0  0  0
   -1.1786    1.9143   -5.6192 O   0  0  0  0  0  0  0  0  0  0  0  0
    0.0986   -1.0180   -2.9026 C   0  0  0  0  0  0  0  0  0  0  0  0
   -0.2213   -1.0009   -7.2006 C   0  0  1  0  0  0  0  0  0  0  0  0
    0.8189   -0.1716   -7.9397 C   0  0  0  0  0  0  0  0  0  0  0  0
    0.2510   -2.3541   -7.1243 O   0  0  0  0  0  0  0  0  0  0  0  0
   -4.0724    1.1456   -3.5850 C   0  0  0  0  0  0  0  0  0  0  0  0
   -4.7158    1.4094   -4.6371 O   0  0  0  0  0  0  0  0  0  0  0  0
   -4.2376    1.5843   -2.4059 O   0  5  0  0  0  0  0  0  0  0  0  0
    0.6564   -0.0925    2.4629 H   0  0  0  0  0  0  0  0  0  0  0  0
   -3.2221   -0.8287    4.0557 H   0  0  0  0  0  0  0  0  0  0  0  0
   -0.6558   -0.4831   -0.2298 H   0  0  0  0  0  0  0  0  0  0  0  0
   -0.9174    1.2581    0.0663 H   0  0  0  0  0  0  0  0  0  0  0  0
   -3.1241    1.0873   -0.5777 H   0  0  0  0  0  0  0  0  0  0  0  0
   -4.2036    0.7002    1.4235 H   0  0  0  0  0  0  0  0  0  0  0  0
   -4.1397   -1.0663    1.1650 H   0  0  0  0  0  0  0  0  0  0  0  0
   -1.3409   -2.6037   -3.2064 H   0  0  0  0  0  0  0  0  0  0  0  0
   -1.8895   -2.1293   -5.4191 H   0  0  0  0  0  0  0  0  0  0  0  0
    0.5658   -0.3224   -5.3181 H   0  0  0  0  0  0  0  0  0  0  0  0
    0.2593   -1.2894   -1.8585 H   0  0  0  0  0  0  0  0  0  0  0  0
    0.9267   -1.4555   -3.4680 H   0  0  0  0  0  0  0  0  0  0  0  0
    0.1752    0.0737   -2.9812 H   0  0  0  0  0  0  0  0  0  0  0  0
   -1.1612   -1.0173   -7.7614 H   0  0  0  0  0  0  0  0  0  0  0  0
    1.7818   -0.1908   -7.4149 H   0  0  0  0  0  0  0  0  0  0  0  0
    1.0012   -0.5796   -8.9392 H   0  0  0  0  0  0  0  0  0  0  0  0
    0.5033    0.8715   -8.0330 H   0  0  0  0  0  0  0  0  0  0  0  0
    1.0449   -2.3746   -6.5631 H   0  0  0  0  0  0  0  0  0  0  0  0
  1  2  1  0  0  0  0
  1  5  2  0  0  0  0
  1  8  1  0  0  0  0
  2  3  1  0  0  0  0
  2  6  1  0  0  0  0
  3  4  2  0  0  0  0
  3 25  1  0  0  0  0
  4  5  1  0  0  0  0
  5 26  1  0  0  0  0
  6  7  1  0  0  0  0
  6 27  1  0  0  0  0
  6 28  1  0  0  0  0
  7  8  1  0  0  0  0
  7  9  1  0  0  0  0
  7 29  1  0  0  0  0
  8 30  1  0  0  0  0
  8 31  1  0  0  0  0
  9 12  1  0  0  0  0
 10 11  1  0  0  0  0
 10 16  1  0  0  0  0
 11 12  2  0  0  0  0
 11 22  1  0  0  0  0
 12 13  1  0  0  0  0
 13 14  1  0  0  0  0
 13 18  1  0  0  0  0
 13 32  1  1  0  0  0
 14 15  1  0  0  0  0
 14 10  1  0  0  0  0
 14 33  1  6  0  0  0
 15 16  1  0  0  0  0
 15 34  1  1  0  0  0
 15 19  1  0  0  0  0
 16 17  2  0  0  0  0
 18 35  1  0  0  0  0
 18 36  1  0  0  0  0
 18 37  1  0  0  0  0
 19 20  1  0  0  0  0
 19 21  1  0  0  0  0
 19 38  1  6  0  0  0
 20 39  1  0  0  0  0
 20 40  1  0  0  0  0
 20 41  1  0  0  0  0
 21 42  1  0  0  0  0
 22 23  2  0  0  0  0
 22 24  1  0  0  0  0
M  CHG  2   1   1  24  -1
M  END
>  <Mol_ID>
4037

>  <Formula>
C15H18N4O4S

>  <MolWeight>
350.39282

>  <Cat>
S1370

>  <Name>
Biapenem

>  <Synonyms>
L-627, LJC10627

>  <Target>
Antibiotics,Bacterial

>  <Form>
free base

>  <CAS>
120410-24-4

>  <URL>
http://selleckchem.com/products/Biapenem.html

$$$$
