BIBR1532.cdx
 OpenBabel08302521443D

 42 44  0  0  0  0  0  0  0  0999 V2000
   -0.0804    3.3027    1.5331 C   0  0  0  0  0  0  0  0  0  0  0  0
    1.1174    2.7333    1.1113 C   0  0  0  0  0  0  0  0  0  0  0  0
    1.1137    1.4721    0.5140 C   0  0  0  0  0  0  0  0  0  0  0  0
   -0.0893    0.7678    0.3361 C   0  0  0  0  0  0  0  0  0  0  0  0
   -1.3043    1.3387    0.7666 C   0  0  0  0  0  0  0  0  0  0  0  0
   -1.2837    2.6098    1.3625 C   0  0  0  0  0  0  0  0  0  0  0  0
   -0.1088   -0.4977   -0.2582 C   0  0  0  0  0  0  0  0  0  0  0  0
   -1.3138   -1.1930   -0.4124 C   0  0  0  0  0  0  0  0  0  0  0  0
   -2.5367   -0.6565    0.0228 C   0  0  0  0  0  0  0  0  0  0  0  0
   -2.5085    0.6179    0.6111 C   0  0  0  0  0  0  0  0  0  0  0  0
   -3.7990   -1.4482   -0.1010 C   0  0  0  0  0  0  0  0  0  0  0  0
   -4.9960   -0.8436   -0.2646 C   0  0  0  0  0  0  0  0  0  0  0  0
   -3.6392   -2.9527   -0.0168 C   0  0  0  0  0  0  0  0  0  0  0  0
   -6.2334   -1.6454   -0.4756 C   0  0  0  0  0  0  0  0  0  0  0  0
   -7.3122   -1.1889    0.2490 N   0  0  0  0  0  0  0  0  0  0  0  0
   -6.2556   -2.5778   -1.2720 O   0  0  0  0  0  0  0  0  0  0  0  0
   -8.5686   -1.8446    0.2376 C   0  0  0  0  0  0  0  0  0  0  0  0
   -9.7670   -1.1152    0.1612 C   0  0  0  0  0  0  0  0  0  0  0  0
  -10.9990   -1.7885    0.1322 C   0  0  0  0  0  0  0  0  0  0  0  0
  -11.0431   -3.1803    0.2067 C   0  0  0  0  0  0  0  0  0  0  0  0
   -9.8598   -3.9067    0.3033 C   0  0  0  0  0  0  0  0  0  0  0  0
   -8.6303   -3.2441    0.3102 C   0  0  0  0  0  0  0  0  0  0  0  0
   -9.7278    0.3547    0.0167 C   0  0  0  0  0  0  0  0  0  0  0  0
   -8.8086    1.0786    0.3566 O   0  0  0  0  0  0  0  0  0  0  0  0
  -10.8041    0.8410   -0.6292 O   0  0  0  0  0  0  0  0  0  0  0  0
   -0.0811    4.2848    1.9976 H   0  0  0  0  0  0  0  0  0  0  0  0
    2.0535    3.2689    1.2487 H   0  0  0  0  0  0  0  0  0  0  0  0
    2.0602    1.0423    0.1912 H   0  0  0  0  0  0  0  0  0  0  0  0
   -2.2062    3.0754    1.7043 H   0  0  0  0  0  0  0  0  0  0  0  0
    0.8128   -0.9588   -0.6088 H   0  0  0  0  0  0  0  0  0  0  0  0
   -1.2700   -2.1687   -0.8915 H   0  0  0  0  0  0  0  0  0  0  0  0
   -3.4268    1.0647    0.9841 H   0  0  0  0  0  0  0  0  0  0  0  0
   -5.1180    0.2295   -0.3240 H   0  0  0  0  0  0  0  0  0  0  0  0
   -3.2178   -3.3500   -0.9459 H   0  0  0  0  0  0  0  0  0  0  0  0
   -2.9851   -3.2245    0.8185 H   0  0  0  0  0  0  0  0  0  0  0  0
   -4.5785   -3.4796    0.1697 H   0  0  0  0  0  0  0  0  0  0  0  0
   -7.3049   -0.2157    0.5506 H   0  0  0  0  0  0  0  0  0  0  0  0
  -11.9298   -1.2342    0.0346 H   0  0  0  0  0  0  0  0  0  0  0  0
  -11.9989   -3.6979    0.1784 H   0  0  0  0  0  0  0  0  0  0  0  0
   -9.8885   -4.9921    0.3650 H   0  0  0  0  0  0  0  0  0  0  0  0
   -7.7197   -3.8349    0.3904 H   0  0  0  0  0  0  0  0  0  0  0  0
  -10.6172    1.7953   -0.7490 H   0  0  0  0  0  0  0  0  0  0  0  0
  1  2  2  0  0  0  0
  1 26  1  0  0  0  0
  2  3  1  0  0  0  0
  2 27  1  0  0  0  0
  3  4  2  0  0  0  0
  3 28  1  0  0  0  0
  4  5  1  0  0  0  0
  4  7  1  0  0  0  0
  5  6  2  0  0  0  0
  6  1  1  0  0  0  0
  6 29  1  0  0  0  0
  7  8  2  0  0  0  0
  7 30  1  0  0  0  0
  8  9  1  0  0  0  0
  8 31  1  0  0  0  0
  9 10  2  0  0  0  0
  9 11  1  0  0  0  0
 10  5  1  0  0  0  0
 10 32  1  0  0  0  0
 11 12  2  0  0  0  0
 11 13  1  0  0  0  0
 12 14  1  0  0  0  0
 12 33  1  0  0  0  0
 13 34  1  0  0  0  0
 13 35  1  0  0  0  0
 13 36  1  0  0  0  0
 14 15  1  0  0  0  0
 14 16  2  0  0  0  0
 15 17  1  0  0  0  0
 15 37  1  0  0  0  0
 17 18  2  0  0  0  0
 18 19  1  0  0  0  0
 18 23  1  0  0  0  0
 19 20  2  0  0  0  0
 19 38  1  0  0  0  0
 20 21  1  0  0  0  0
 20 39  1  0  0  0  0
 21 22  2  0  0  0  0
 21 40  1  0  0  0  0
 22 17  1  0  0  0  0
 22 41  1  0  0  0  0
 23 24  2  0  0  0  0
 23 25  1  0  0  0  0
 25 42  1  0  0  0  0
M  END
>  <Mol_ID>
109

>  <Formula>
C21H17NO3

>  <MolWeight>
331.36458

>  <Cat>
S1186

>  <Name>
BIBR 1532

>  <Synonyms>
N/A

>  <Target>
Apoptosis related,Telomerase

>  <Form>
free base

>  <CAS>
321674-73-1

>  <URL>
http://selleckchem.com/products/BIBR1532.html

$$$$
