BIBW2992 (Afatinib).cdx
 OpenBabel08302522063D

 59 62  0  0  0  0  0  0  0  0999 V2000
    1.2534   -0.9047   -1.3698 C   0  0  0  0  0  0  0  0  0  0  0  0
    0.6511   -2.1813   -0.8889 C   0  0  0  0  0  0  0  0  0  0  0  0
   -0.2941   -2.7726   -1.6332 C   0  0  0  0  0  0  0  0  0  0  0  0
   -1.0338   -4.0250   -1.2736 C   0  0  0  0  0  0  0  0  0  0  0  0
    0.8585   -0.3461   -2.3860 O   0  0  0  0  0  0  0  0  0  0  0  0
    2.3234   -0.4828   -0.5839 N   0  0  0  0  0  0  0  0  0  0  0  0
   -0.7701   -5.1527   -2.1741 N   0  0  0  0  0  0  0  0  0  0  0  0
   -1.5118   -6.3349   -1.7140 C   0  0  0  0  0  0  0  0  0  0  0  0
   -1.1602   -4.8590   -3.5607 C   0  0  0  0  0  0  0  0  0  0  0  0
    4.9079    3.3451   -3.6101 N   0  0  0  0  0  0  0  0  0  0  0  0
    5.8872    2.9342   -4.4222 C   0  0  0  0  0  0  0  0  0  0  0  0
    6.4383    1.7182   -4.4375 N   0  0  0  0  0  0  0  0  0  0  0  0
    5.9314    0.8133   -3.5804 C   0  0  0  0  0  0  0  0  0  0  0  0
    4.8599    1.1187   -2.7190 C   0  0  0  0  0  0  0  0  0  0  0  0
    4.2296    0.1944   -1.8549 C   0  0  0  0  0  0  0  0  0  0  0  0
    3.1099    0.5688   -1.1060 C   0  0  0  0  0  0  0  0  0  0  0  0
    2.7050    1.9072   -1.0758 C   0  0  0  0  0  0  0  0  0  0  0  0
    3.3543    2.8157   -1.9229 C   0  0  0  0  0  0  0  0  0  0  0  0
    4.3952    2.4402   -2.7691 C   0  0  0  0  0  0  0  0  0  0  0  0
    1.6770    2.4428   -0.3400 O   0  0  0  0  0  0  0  0  0  0  0  0
   -0.4493    1.4672    2.2842 O   0  0  0  0  0  0  0  0  0  0  0  0
    0.3267    1.0632    1.1560 C   0  0  0  0  0  0  0  0  0  0  0  0
    1.5238    1.9925    1.0146 C   0  0  2  0  0  0  0  0  0  0  0  0
    1.1730    3.1724    1.9109 C   0  0  0  0  0  0  0  0  0  0  0  0
   -0.1424    2.8247    2.5777 C   0  0  0  0  0  0  0  0  0  0  0  0
    6.4825   -0.4983   -3.5815 N   0  0  0  0  0  0  0  0  0  0  0  0
    7.7870   -0.8441   -4.0055 C   0  0  0  0  0  0  0  0  0  0  0  0
    8.8747    0.0215   -3.8044 C   0  0  0  0  0  0  0  0  0  0  0  0
   10.1692   -0.3459   -4.1762 C   0  0  0  0  0  0  0  0  0  0  0  0
   10.3880   -1.5990   -4.7296 C   0  0  0  0  0  0  0  0  0  0  0  0
    9.3390   -2.4924   -4.9014 C   0  0  0  0  0  0  0  0  0  0  0  0
    8.0438   -2.1224   -4.5258 C   0  0  0  0  0  0  0  0  0  0  0  0
   11.6267   -1.9522   -5.0930 F   0  0  0  0  0  0  0  0  0  0  0  0
    0.9696   -2.5861    0.0602 H   0  0  0  0  0  0  0  0  0  0  0  0
   -0.5963   -2.3053   -2.5687 H   0  0  0  0  0  0  0  0  0  0  0  0
   -0.7558   -4.3190   -0.2456 H   0  0  0  0  0  0  0  0  0  0  0  0
   -2.1099   -3.7909   -1.2376 H   0  0  0  0  0  0  0  0  0  0  0  0
    2.8314   -1.2566   -0.1738 H   0  0  0  0  0  0  0  0  0  0  0  0
   -2.5971   -6.1725   -1.7245 H   0  0  0  0  0  0  0  0  0  0  0  0
   -1.2889   -7.2003   -2.3476 H   0  0  0  0  0  0  0  0  0  0  0  0
   -1.2146   -6.6072   -0.6962 H   0  0  0  0  0  0  0  0  0  0  0  0
   -2.2005   -4.5196   -3.6361 H   0  0  0  0  0  0  0  0  0  0  0  0
   -0.5091   -4.0932   -3.9955 H   0  0  0  0  0  0  0  0  0  0  0  0
   -1.0400   -5.7449   -4.1929 H   0  0  0  0  0  0  0  0  0  0  0  0
    6.2619    3.6477   -5.1477 H   0  0  0  0  0  0  0  0  0  0  0  0
    4.5481   -0.8449   -1.8594 H   0  0  0  0  0  0  0  0  0  0  0  0
    3.0190    3.8507   -1.9459 H   0  0  0  0  0  0  0  0  0  0  0  0
   -0.3091    1.0631    0.2646 H   0  0  0  0  0  0  0  0  0  0  0  0
    0.6449    0.0367    1.3535 H   0  0  0  0  0  0  0  0  0  0  0  0
    2.4438    1.5297    1.3944 H   0  0  0  0  0  0  0  0  0  0  0  0
    1.9399    3.2995    2.6849 H   0  0  0  0  0  0  0  0  0  0  0  0
    1.1042    4.1280    1.3808 H   0  0  0  0  0  0  0  0  0  0  0  0
   -0.0957    2.9390    3.6656 H   0  0  0  0  0  0  0  0  0  0  0  0
   -0.9572    3.4575    2.2102 H   0  0  0  0  0  0  0  0  0  0  0  0
    5.7792   -1.1439   -3.9265 H   0  0  0  0  0  0  0  0  0  0  0  0
    8.7201    0.9988   -3.3533 H   0  0  0  0  0  0  0  0  0  0  0  0
   10.9996    0.3373   -4.0314 H   0  0  0  0  0  0  0  0  0  0  0  0
    9.5355   -3.4714   -5.3266 H   0  0  0  0  0  0  0  0  0  0  0  0
    7.2364   -2.8373   -4.6602 H   0  0  0  0  0  0  0  0  0  0  0  0
  1  2  1  0  0  0  0
  1  5  2  0  0  0  0
  1  6  1  0  0  0  0
  2  3  2  0  0  0  0
  2 34  1  0  0  0  0
  3  4  1  0  0  0  0
  3 35  1  0  0  0  0
  4  7  1  0  0  0  0
  4 36  1  0  0  0  0
  4 37  1  0  0  0  0
  6 16  1  0  0  0  0
  6 38  1  0  0  0  0
  7  8  1  0  0  0  0
  7  9  1  0  0  0  0
  8 39  1  0  0  0  0
  8 40  1  0  0  0  0
  8 41  1  0  0  0  0
  9 42  1  0  0  0  0
  9 43  1  0  0  0  0
  9 44  1  0  0  0  0
 10 11  2  0  0  0  0
 10 19  1  0  0  0  0
 11 12  1  0  0  0  0
 11 45  1  0  0  0  0
 12 13  2  0  0  0  0
 13 14  1  0  0  0  0
 13 26  1  0  0  0  0
 14 15  1  0  0  0  0
 14 19  2  0  0  0  0
 15 16  2  0  0  0  0
 15 46  1  0  0  0  0
 16 17  1  0  0  0  0
 17 18  2  0  0  0  0
 17 20  1  0  0  0  0
 18 19  1  0  0  0  0
 18 47  1  0  0  0  0
 21 22  1  0  0  0  0
 21 25  1  0  0  0  0
 22 23  1  0  0  0  0
 22 48  1  0  0  0  0
 22 49  1  0  0  0  0
 23 24  1  0  0  0  0
 23 20  1  0  0  0  0
 23 50  1  1  0  0  0
 24 25  1  0  0  0  0
 24 51  1  0  0  0  0
 24 52  1  0  0  0  0
 25 53  1  0  0  0  0
 25 54  1  0  0  0  0
 26 27  1  0  0  0  0
 26 55  1  0  0  0  0
 27 28  2  0  0  0  0
 27 32  1  0  0  0  0
 28 29  1  0  0  0  0
 28 56  1  0  0  0  0
 29 30  2  0  0  0  0
 29 57  1  0  0  0  0
 30 31  1  0  0  0  0
 30 33  1  0  0  0  0
 31 32  2  0  0  0  0
 31 58  1  0  0  0  0
 32 59  1  0  0  0  0
M  END
>  <Mol_ID>
1439

>  <Formula>
C24H25ClFN5O3

>  <MolWeight>
485.9384032

>  <Cat>
S1011

>  <Name>
Afatinib (BIBW2992)

>  <Synonyms>
BIBW2992

>  <Target>
Autophagy,EGFR,HER2

>  <Form>
Free Base

>  <CAS>
850140-72-6

>  <URL>
http://selleckchem.com/products/BIBW2992.html

$$$$
