Bicine
 OpenBabel08302521383D

 24 23  0  0  0  0  0  0  0  0999 V2000
    0.9883   -0.1392    0.0053 N   0  0  0  0  0  0  0  0  0  0  0  0
    0.4793   -0.6884    1.3142 C   0  0  0  0  0  0  0  0  0  0  0  0
    0.5980    1.3079   -0.0894 C   0  0  0  0  0  0  0  0  0  0  0  0
    2.4743   -0.2718   -0.0472 C   0  0  0  0  0  0  0  0  0  0  0  0
   -1.0487   -0.7736    1.3520 C   0  0  0  0  0  0  0  0  0  0  0  0
    1.1044    2.0935   -1.3159 C   0  0  0  0  0  0  0  0  0  0  0  0
    2.9689   -1.7259   -0.1441 C   0  0  0  0  0  0  0  0  0  0  0  0
   -1.5936   -0.9455    0.1208 O   0  0  0  0  0  0  0  0  0  0  0  0
   -1.7096   -0.7565    2.3745 O   0  0  0  0  0  0  0  0  0  0  0  0
    0.7499    1.4447   -2.5308 O   0  0  0  0  0  0  0  0  0  0  0  0
    2.3606   -2.3706   -1.2591 O   0  0  0  0  0  0  0  0  0  0  0  0
    0.8166   -1.7198    1.4542 H   0  0  0  0  0  0  0  0  0  0  0  0
    0.8228   -0.0857    2.1612 H   0  0  0  0  0  0  0  0  0  0  0  0
   -0.4958    1.3532   -0.1406 H   0  0  0  0  0  0  0  0  0  0  0  0
    0.9018    1.8496    0.8157 H   0  0  0  0  0  0  0  0  0  0  0  0
    2.8260    0.2021   -0.9689 H   0  0  0  0  0  0  0  0  0  0  0  0
    2.9582    0.2398    0.7939 H   0  0  0  0  0  0  0  0  0  0  0  0
    0.6338    3.0821   -1.3246 H   0  0  0  0  0  0  0  0  0  0  0  0
    2.1869    2.2557   -1.2901 H   0  0  0  0  0  0  0  0  0  0  0  0
    4.0526   -1.7436   -0.2985 H   0  0  0  0  0  0  0  0  0  0  0  0
    2.7554   -2.3027    0.7596 H   0  0  0  0  0  0  0  0  0  0  0  0
   -0.8827   -0.8679   -0.5536 H   0  0  0  0  0  0  0  0  0  0  0  0
    1.4579    0.8110   -2.7393 H   0  0  0  0  0  0  0  0  0  0  0  0
    1.4594   -2.0054   -1.3287 H   0  0  0  0  0  0  0  0  0  0  0  0
  1  2  1  0  0  0  0
  1  3  1  0  0  0  0
  1  4  1  0  0  0  0
  2  5  1  0  0  0  0
  2 12  1  0  0  0  0
  2 13  1  0  0  0  0
  3  6  1  0  0  0  0
  3 14  1  0  0  0  0
  3 15  1  0  0  0  0
  4  7  1  0  0  0  0
  4 16  1  0  0  0  0
  4 17  1  0  0  0  0
  5  8  1  0  0  0  0
  5  9  2  0  0  0  0
  6 10  1  0  0  0  0
  6 18  1  0  0  0  0
  6 19  1  0  0  0  0
  7 11  1  0  0  0  0
  7 20  1  0  0  0  0
  7 21  1  0  0  0  0
  8 22  1  0  0  0  0
 10 23  1  0  0  0  0
 11 24  1  0  0  0  0
M  END
>  <Mol_ID>
7919

>  <Formula>
C6H13NO4

>  <MolWeight>
163.17172

>  <Cat>
S6276

>  <Name>
Bicine

>  <Synonyms>
N,N-Bis(2-hydroxyethyl)glycine, Diethylolglycine, Diethanol glycine, Dihydroxyethylglycine

>  <Target>
Others

>  <Form>
free base

>  <CAS>
150-25-4

>  <URL>
http://www.selleck.cn/products/bicine.html

$$$$
