BIIB021 (CNF2024).cdx
 OpenBabel08302521423D

 37 39  0  0  0  0  0  0  0  0999 V2000
   -1.4174    0.1068   -2.9853 N   0  0  0  0  0  0  0  0  0  0  0  0
   -0.7485   -1.0408   -3.1897 C   0  0  0  0  0  0  0  0  0  0  0  0
    0.1474   -1.6041   -2.3663 N   0  0  0  0  0  0  0  0  0  0  0  0
    0.3704   -0.8580   -1.2727 C   0  0  0  0  0  0  0  0  0  0  0  0
   -0.2151    0.3573   -0.9560 C   0  0  0  0  0  0  0  0  0  0  0  0
   -1.1524    0.8345   -1.8640 C   0  0  0  0  0  0  0  0  0  0  0  0
   -1.0668   -1.7407   -4.3382 N   0  0  0  0  0  0  0  0  0  0  0  0
    1.1815   -1.1401   -0.2079 N   0  0  0  0  0  0  0  0  0  0  0  0
    1.1086   -0.0818    0.6592 C   0  0  0  0  0  0  0  0  0  0  0  0
    0.2562    0.8355    0.2435 N   0  0  0  0  0  0  0  0  0  0  0  0
    1.9476   -2.3549   -0.0117 C   0  0  0  0  0  0  0  0  0  0  0  0
    1.4997   -3.0889    1.2329 C   0  0  0  0  0  0  0  0  0  0  0  0
    0.2239   -3.6680    1.3724 C   0  0  0  0  0  0  0  0  0  0  0  0
   -0.1299   -4.1609    2.6452 C   0  0  0  0  0  0  0  0  0  0  0  0
    0.8196   -4.1922    3.6756 C   0  0  0  0  0  0  0  0  0  0  0  0
    2.0819   -3.6933    3.3939 C   0  0  0  0  0  0  0  0  0  0  0  0
    2.4252   -3.1160    2.2257 N   0  0  0  0  0  0  0  0  0  0  0  0
   -0.7099   -3.7807    0.2012 C   0  0  0  0  0  0  0  0  0  0  0  0
   -1.3446   -4.7320    2.9379 O   0  0  0  0  0  0  0  0  0  0  0  0
   -2.5005   -3.9821    2.5664 C   0  0  0  0  0  0  0  0  0  0  0  0
    0.5583   -4.7818    5.0291 C   0  0  0  0  0  0  0  0  0  0  0  0
   -1.6950    1.7547   -1.7264 H   0  0  0  0  0  0  0  0  0  0  0  0
   -0.8539   -2.7198   -4.2232 H   0  0  0  0  0  0  0  0  0  0  0  0
   -2.0002   -1.4919   -4.6397 H   0  0  0  0  0  0  0  0  0  0  0  0
    1.6789   -0.0414    1.5805 H   0  0  0  0  0  0  0  0  0  0  0  0
    1.8771   -2.9930   -0.8967 H   0  0  0  0  0  0  0  0  0  0  0  0
    2.9971   -2.0464    0.0779 H   0  0  0  0  0  0  0  0  0  0  0  0
    2.8821   -3.7403    4.1290 H   0  0  0  0  0  0  0  0  0  0  0  0
   -1.1970   -4.7605    0.1978 H   0  0  0  0  0  0  0  0  0  0  0  0
   -1.4629   -2.9873    0.2257 H   0  0  0  0  0  0  0  0  0  0  0  0
   -0.1868   -3.7280   -0.7545 H   0  0  0  0  0  0  0  0  0  0  0  0
   -2.3140   -2.9059    2.4801 H   0  0  0  0  0  0  0  0  0  0  0  0
   -2.9083   -4.3808    1.6327 H   0  0  0  0  0  0  0  0  0  0  0  0
   -3.2659   -4.1296    3.3346 H   0  0  0  0  0  0  0  0  0  0  0  0
    1.0100   -5.7763    5.0996 H   0  0  0  0  0  0  0  0  0  0  0  0
    0.9902   -4.1438    5.8087 H   0  0  0  0  0  0  0  0  0  0  0  0
   -0.5097   -4.8673    5.2487 H   0  0  0  0  0  0  0  0  0  0  0  0
  1  2  2  0  0  0  0
  2  3  1  0  0  0  0
  2  7  1  0  0  0  0
  3  4  2  0  0  0  0
  4  5  1  0  0  0  0
  4  8  1  0  0  0  0
  5  6  2  0  0  0  0
  6  1  1  0  0  0  0
  6 22  1  0  0  0  0
  7 23  1  0  0  0  0
  7 24  1  0  0  0  0
  8  9  1  0  0  0  0
  8 11  1  0  0  0  0
  9 10  2  0  0  0  0
  9 25  1  0  0  0  0
 10  5  1  0  0  0  0
 11 12  1  0  0  0  0
 11 26  1  0  0  0  0
 11 27  1  0  0  0  0
 12 13  2  0  0  0  0
 13 14  1  0  0  0  0
 13 18  1  0  0  0  0
 14 15  2  0  0  0  0
 14 19  1  0  0  0  0
 15 16  1  0  0  0  0
 15 21  1  0  0  0  0
 16 17  2  0  0  0  0
 16 28  1  0  0  0  0
 17 12  1  0  0  0  0
 18 29  1  0  0  0  0
 18 30  1  0  0  0  0
 18 31  1  0  0  0  0
 19 20  1  0  0  0  0
 20 32  1  0  0  0  0
 20 33  1  0  0  0  0
 20 34  1  0  0  0  0
 21 35  1  0  0  0  0
 21 36  1  0  0  0  0
 21 37  1  0  0  0  0
M  END
>  <Mol_ID>
100

>  <Formula>
C14H15ClN6O

>  <MolWeight>
318.7615

>  <Cat>
S1175

>  <Name>
BIIB021

>  <Synonyms>
CNF2024

>  <Target>
HSP (HSP90)

>  <Form>
free base

>  <CAS>
848695-25-0

>  <URL>
http://selleckchem.com/products/BIIB021.html

$$$$
