Bilobalide.cdx
 OpenBabel08302521363D

 41 44  0  0  0  0  0  0  0  0999 V2000
   -2.2738   -0.7291   -1.2509 O   0  0  0  0  0  0  0  0  0  0  0  0
   -0.9950   -1.1767   -1.3918 C   0  0  0  0  0  0  0  0  0  0  0  0
   -0.0850   -0.4864   -0.4166 C   0  0  1  0  0  0  0  0  0  0  0  0
   -0.9211    0.6626    0.1435 C   0  0  3  0  0  0  0  0  0  0  0  0
   -2.3507    0.1295   -0.1167 C   0  0  1  0  0  0  0  0  0  0  0  0
    0.1852   -1.4359    0.7233 C   0  0  2  0  0  0  0  0  0  0  0  0
   -0.4513   -0.8239    1.9814 C   0  0  0  0  0  0  0  0  0  0  0  0
   -0.6323    0.7055    1.7097 C   0  0  1  0  0  0  0  0  0  0  0  0
   -1.0128    1.9213   -0.7210 C   0  0  2  0  0  0  0  0  0  0  0  0
   -2.4793    2.3058   -0.7127 C   0  0  0  0  0  0  0  0  0  0  0  0
   -3.2210    1.2241   -0.3710 O   0  0  0  0  0  0  0  0  0  0  0  0
    1.2568   -0.1372   -1.0177 C   0  0  0  0  0  0  0  0  0  0  0  0
    2.2204   -0.9693   -0.2374 C   0  0  0  0  0  0  0  0  0  0  0  0
    1.5983   -1.5722    0.8163 O   0  0  0  0  0  0  0  0  0  0  0  0
    3.4212   -1.0129   -0.4357 O   0  0  0  0  0  0  0  0  0  0  0  0
   -0.6650   -2.0496   -2.1732 O   0  0  0  0  0  0  0  0  0  0  0  0
   -2.9501    3.3527   -1.1309 O   0  0  0  0  0  0  0  0  0  0  0  0
   -0.6451    1.6307   -2.0805 O   0  0  0  0  0  0  0  0  0  0  0  0
    0.5170    1.5383    2.4761 C   0  0  0  0  0  0  0  0  0  0  0  0
    1.9688    1.1410    2.1616 C   0  0  0  0  0  0  0  0  0  0  0  0
    0.4101    3.0606    2.2604 C   0  0  0  0  0  0  0  0  0  0  0  0
    0.3906    1.3463    4.0328 C   0  0  0  0  0  0  0  0  0  0  0  0
   -1.8721    1.1528    2.2815 O   0  0  0  0  0  0  0  0  0  0  0  0
   -2.7943   -0.4498    0.6977 H   0  0  0  0  0  0  0  0  0  0  0  0
   -0.2125   -2.4461    0.5782 H   0  0  0  0  0  0  0  0  0  0  0  0
    0.1410   -1.0589    2.8660 H   0  0  0  0  0  0  0  0  0  0  0  0
   -1.4338   -1.2812    2.1522 H   0  0  0  0  0  0  0  0  0  0  0  0
   -0.3975    2.7466   -0.3784 H   0  0  0  0  0  0  0  0  0  0  0  0
    1.3359   -0.3801   -2.0804 H   0  0  0  0  0  0  0  0  0  0  0  0
    1.5180    0.9150   -0.8705 H   0  0  0  0  0  0  0  0  0  0  0  0
   -1.4418    1.3792   -2.5943 H   0  0  0  0  0  0  0  0  0  0  0  0
    2.2372    1.3617    1.1300 H   0  0  0  0  0  0  0  0  0  0  0  0
    2.6760    1.7043    2.7863 H   0  0  0  0  0  0  0  0  0  0  0  0
    2.1671    0.0927    2.3948 H   0  0  0  0  0  0  0  0  0  0  0  0
   -0.5916    3.4369    2.4840 H   0  0  0  0  0  0  0  0  0  0  0  0
    1.1067    3.5938    2.9237 H   0  0  0  0  0  0  0  0  0  0  0  0
    0.6846    3.3484    1.2454 H   0  0  0  0  0  0  0  0  0  0  0  0
   -0.5463    1.7466    4.4316 H   0  0  0  0  0  0  0  0  0  0  0  0
    0.4674    0.2984    4.3378 H   0  0  0  0  0  0  0  0  0  0  0  0
    1.1962    1.8710    4.5636 H   0  0  0  0  0  0  0  0  0  0  0  0
   -1.9101    0.9254    3.2283 H   0  0  0  0  0  0  0  0  0  0  0  0
  1  2  1  0  0  0  0
  2 16  2  0  0  0  0
  3  2  1  6  0  0  0
  3  4  1  0  0  0  0
  3  6  1  0  0  0  0
  3 12  1  0  0  0  0
  4  5  1  0  0  0  0
  4  9  1  0  0  0  0
  5  1  1  0  0  0  0
  5 11  1  0  0  0  0
  5 24  1  1  0  0  0
  6  7  1  0  0  0  0
  6 14  1  0  0  0  0
  6 25  1  6  0  0  0
  7  8  1  0  0  0  0
  7 26  1  0  0  0  0
  7 27  1  0  0  0  0
  8  4  1  0  0  0  0
  8 19  1  0  0  0  0
  8 23  1  1  0  0  0
  9 10  1  0  0  0  0
  9 28  1  1  0  0  0
  9 18  1  0  0  0  0
 10 11  1  0  0  0  0
 10 17  2  0  0  0  0
 12 13  1  0  0  0  0
 12 29  1  0  0  0  0
 12 30  1  0  0  0  0
 13 14  1  0  0  0  0
 13 15  2  0  0  0  0
 18 31  1  0  0  0  0
 19 20  1  0  0  0  0
 19 21  1  0  0  0  0
 19 22  1  0  0  0  0
 20 32  1  0  0  0  0
 20 33  1  0  0  0  0
 20 34  1  0  0  0  0
 21 35  1  0  0  0  0
 21 36  1  0  0  0  0
 21 37  1  0  0  0  0
 22 38  1  0  0  0  0
 22 39  1  0  0  0  0
 22 40  1  0  0  0  0
 23 41  1  0  0  0  0
M  END
>  <Mol_ID>
669

>  <Formula>
C15H18O8

>  <MolWeight>
326.29862

>  <Cat>
S2276

>  <Name>
Bilobalide

>  <Synonyms>
N/A

>  <Target>
Others

>  <Form>
free base

>  <CAS>
33570-04-6

>  <URL>
http://selleckchem.com/products/Bilobalide.html

$$$$
