Bimiralisib (PQR309)
 OpenBabel08302521043D

 49 52  0  0  0  0  0  0  0  0999 V2000
   -0.6362   -1.2318   -0.0148 N   0  0  0  0  0  0  0  0  0  0  0  0
   -1.3491   -0.1158   -0.0545 C   0  0  0  0  0  0  0  0  0  0  0  0
   -0.7914    1.0864   -0.0190 N   0  0  0  0  0  0  0  0  0  0  0  0
    0.5241    1.1134    0.1563 C   0  0  0  0  0  0  0  0  0  0  0  0
    1.2803    0.0432    0.3322 N   0  0  0  0  0  0  0  0  0  0  0  0
    0.6754   -1.1254    0.1603 C   0  0  0  0  0  0  0  0  0  0  0  0
    1.4587   -2.2400    0.0619 N   0  0  0  0  0  0  0  0  0  0  0  0
   -2.7083   -0.2028   -0.1542 N   0  0  0  0  0  0  0  0  0  0  0  0
    1.1740    2.4239    0.1994 C   0  0  0  0  0  0  0  0  0  0  0  0
    0.4709    3.5004    0.7527 C   0  0  0  0  0  0  0  0  0  0  0  0
    0.9470    4.7581    0.9212 N   0  0  0  0  0  0  0  0  0  0  0  0
    2.1983    4.9958    0.5263 C   0  0  0  0  0  0  0  0  0  0  0  0
    2.9847    4.0149   -0.0589 C   0  0  0  0  0  0  0  0  0  0  0  0
    2.4726    2.7145   -0.2563 C   0  0  0  0  0  0  0  0  0  0  0  0
    2.7464   -2.2926    0.7479 C   0  0  0  0  0  0  0  0  0  0  0  0
    3.7380   -3.0826   -0.1198 C   0  0  0  0  0  0  0  0  0  0  0  0
    3.2277   -4.3874   -0.4439 O   0  0  0  0  0  0  0  0  0  0  0  0
    1.9839   -4.2765   -1.1629 C   0  0  0  0  0  0  0  0  0  0  0  0
    0.9146   -3.5298   -0.3481 C   0  0  0  0  0  0  0  0  0  0  0  0
   -3.4110   -1.4787   -0.0584 C   0  0  0  0  0  0  0  0  0  0  0  0
   -4.3421   -1.6356   -1.2703 C   0  0  0  0  0  0  0  0  0  0  0  0
   -5.2171   -0.5024   -1.4207 O   0  0  0  0  0  0  0  0  0  0  0  0
   -4.4529    0.7056   -1.5865 C   0  0  0  0  0  0  0  0  0  0  0  0
   -3.5492    0.9694   -0.3729 C   0  0  0  0  0  0  0  0  0  0  0  0
    3.3955    1.7528   -0.9680 C   0  0  0  0  0  0  0  0  0  0  0  0
    2.8595    0.6000   -1.4397 F   0  0  0  0  0  0  0  0  0  0  0  0
    3.9467    2.3372   -2.0768 F   0  0  0  0  0  0  0  0  0  0  0  0
    4.4596    1.3934   -0.1932 F   0  0  0  0  0  0  0  0  0  0  0  0
    2.7057    6.2637    0.7657 N   0  0  0  0  0  0  0  0  0  0  0  0
   -0.5522    3.3738    1.1077 H   0  0  0  0  0  0  0  0  0  0  0  0
    4.0006    4.2571   -0.3597 H   0  0  0  0  0  0  0  0  0  0  0  0
    2.6067   -2.8091    1.7059 H   0  0  0  0  0  0  0  0  0  0  0  0
    3.1722   -1.3060    0.9610 H   0  0  0  0  0  0  0  0  0  0  0  0
    3.9564   -2.5425   -1.0504 H   0  0  0  0  0  0  0  0  0  0  0  0
    4.6798   -3.2149    0.4198 H   0  0  0  0  0  0  0  0  0  0  0  0
    1.6434   -5.2913   -1.3923 H   0  0  0  0  0  0  0  0  0  0  0  0
    2.1740   -3.7657   -2.1171 H   0  0  0  0  0  0  0  0  0  0  0  0
    0.6539   -4.1095    0.5457 H   0  0  0  0  0  0  0  0  0  0  0  0
    0.0173   -3.4335   -0.9695 H   0  0  0  0  0  0  0  0  0  0  0  0
   -4.0091   -1.4706    0.8610 H   0  0  0  0  0  0  0  0  0  0  0  0
   -2.7476   -2.3482   -0.0039 H   0  0  0  0  0  0  0  0  0  0  0  0
   -3.7626   -1.7604   -2.1933 H   0  0  0  0  0  0  0  0  0  0  0  0
   -4.9683   -2.5239   -1.1450 H   0  0  0  0  0  0  0  0  0  0  0  0
   -5.1589    1.5319   -1.7126 H   0  0  0  0  0  0  0  0  0  0  0  0
   -3.8594    0.6266   -2.5053 H   0  0  0  0  0  0  0  0  0  0  0  0
   -4.1667    1.1248    0.5199 H   0  0  0  0  0  0  0  0  0  0  0  0
   -2.9846    1.8914   -0.5474 H   0  0  0  0  0  0  0  0  0  0  0  0
    1.9471    6.8197    1.1562 H   0  0  0  0  0  0  0  0  0  0  0  0
    3.0940    6.6888   -0.0679 H   0  0  0  0  0  0  0  0  0  0  0  0
  1  2  2  0  0  0  0
  2  3  1  0  0  0  0
  2  8  1  0  0  0  0
  3  4  2  0  0  0  0
  4  5  1  0  0  0  0
  4  9  1  0  0  0  0
  5  6  2  0  0  0  0
  6  1  1  0  0  0  0
  6  7  1  0  0  0  0
  7 15  1  0  0  0  0
  8 20  1  0  0  0  0
  9 10  2  0  0  0  0
 10 11  1  0  0  0  0
 10 30  1  0  0  0  0
 11 12  2  0  0  0  0
 12 13  1  0  0  0  0
 12 29  1  0  0  0  0
 13 14  2  0  0  0  0
 13 31  1  0  0  0  0
 14  9  1  0  0  0  0
 14 25  1  0  0  0  0
 15 16  1  0  0  0  0
 15 32  1  0  0  0  0
 15 33  1  0  0  0  0
 16 17  1  0  0  0  0
 16 34  1  0  0  0  0
 16 35  1  0  0  0  0
 17 18  1  0  0  0  0
 18 19  1  0  0  0  0
 18 36  1  0  0  0  0
 18 37  1  0  0  0  0
 19  7  1  0  0  0  0
 19 38  1  0  0  0  0
 19 39  1  0  0  0  0
 20 21  1  0  0  0  0
 20 40  1  0  0  0  0
 20 41  1  0  0  0  0
 21 22  1  0  0  0  0
 21 42  1  0  0  0  0
 21 43  1  0  0  0  0
 22 23  1  0  0  0  0
 23 24  1  0  0  0  0
 23 44  1  0  0  0  0
 23 45  1  0  0  0  0
 24  8  1  0  0  0  0
 24 46  1  0  0  0  0
 24 47  1  0  0  0  0
 25 26  1  0  0  0  0
 25 27  1  0  0  0  0
 25 28  1  0  0  0  0
 29 48  1  0  0  0  0
 29 49  1  0  0  0  0
M  END
>  <Mol_ID>
4308

>  <Formula>
C17H20F3N7O2

>  <MolWeight>
411.3816096

>  <Cat>
S8738

>  <Name>
Bimiralisib (PQR309)

>  <Synonyms>
N/A

>  <Target>
mTOR,PI3K

>  <Form>
Free Base

>  <CAS>
1225037-39-7

>  <URL>
http://www.selleckchem.com/products/pqr309-bimiralisib.html

$$$$
