BioE-1115
 OpenBabel08302521303D

 43 45  0  0  0  0  0  0  0  0999 V2000
   -2.3550    0.5849    0.0098 C   0  0  0  0  0  0  0  0  0  0  0  0
   -2.3211   -0.8064    0.0421 C   0  0  0  0  0  0  0  0  0  0  0  0
   -1.0817   -1.4648    0.0761 C   0  0  0  0  0  0  0  0  0  0  0  0
    0.1204   -0.7520    0.0472 C   0  0  0  0  0  0  0  0  0  0  0  0
    0.0668    0.6447   -0.0294 C   0  0  0  0  0  0  0  0  0  0  0  0
   -1.1592    1.2968   -0.0298 C   0  0  0  0  0  0  0  0  0  0  0  0
    1.3128   -1.3861    0.0974 N   0  0  0  0  0  0  0  0  0  0  0  0
    2.4944   -0.6872    0.0482 C   0  0  0  0  0  0  0  0  0  0  0  0
    2.3962    0.7259   -0.1139 C   0  0  0  0  0  0  0  0  0  0  0  0
    1.1810    1.3661   -0.1178 N   0  0  0  0  0  0  0  0  0  0  0  0
    3.4693    1.7302   -0.3444 C   0  0  0  0  0  0  0  0  0  0  0  0
    3.6499   -1.4574    0.2010 N   0  0  0  0  0  0  0  0  0  0  0  0
    4.5229    1.5272   -1.2469 C   0  0  0  0  0  0  0  0  0  0  0  0
    5.5603    2.4548   -1.3859 C   0  0  0  0  0  0  0  0  0  0  0  0
    5.4727    3.6797   -0.7419 C   0  0  0  0  0  0  0  0  0  0  0  0
    4.3757    3.9844    0.0455 C   0  0  0  0  0  0  0  0  0  0  0  0
    3.3970    3.0074    0.2629 C   0  0  0  0  0  0  0  0  0  0  0  0
    6.4442    4.5856   -0.9094 F   0  0  0  0  0  0  0  0  0  0  0  0
    3.5219   -2.9403    0.2800 C   0  0  0  0  0  0  0  0  0  0  0  0
    5.0014   -0.9330    0.3021 C   0  0  0  0  0  0  0  0  0  0  0  0
    4.2528   -3.6029   -0.8923 C   0  0  0  0  0  0  0  0  0  0  0  0
    4.0460   -3.4678    1.6245 C   0  0  0  0  0  0  0  0  0  0  0  0
   -3.6211   -1.5209    0.0935 C   0  0  0  0  0  0  0  0  0  0  0  0
   -3.6173   -2.7171   -0.5180 O   0  0  0  0  0  0  0  0  0  0  0  0
   -4.6171   -1.0370    0.6081 O   0  0  0  0  0  0  0  0  0  0  0  0
   -3.3037    1.1199    0.0123 H   0  0  0  0  0  0  0  0  0  0  0  0
   -1.0279   -2.5479    0.1551 H   0  0  0  0  0  0  0  0  0  0  0  0
   -1.1802    2.3850   -0.0599 H   0  0  0  0  0  0  0  0  0  0  0  0
    4.5537    0.6216   -1.8474 H   0  0  0  0  0  0  0  0  0  0  0  0
    6.4219    2.2325   -2.0062 H   0  0  0  0  0  0  0  0  0  0  0  0
    4.2817    4.9725    0.4850 H   0  0  0  0  0  0  0  0  0  0  0  0
    2.5426    3.2633    0.8888 H   0  0  0  0  0  0  0  0  0  0  0  0
    2.4829   -3.2786    0.2172 H   0  0  0  0  0  0  0  0  0  0  0  0
    5.4373   -0.8229   -0.6945 H   0  0  0  0  0  0  0  0  0  0  0  0
    5.0581   -0.0098    0.8795 H   0  0  0  0  0  0  0  0  0  0  0  0
    5.6873   -1.6197    0.8053 H   0  0  0  0  0  0  0  0  0  0  0  0
    5.3192   -3.3552   -0.9109 H   0  0  0  0  0  0  0  0  0  0  0  0
    4.1692   -4.6936   -0.8356 H   0  0  0  0  0  0  0  0  0  0  0  0
    3.8193   -3.2792   -1.8443 H   0  0  0  0  0  0  0  0  0  0  0  0
    3.5519   -2.9611    2.4592 H   0  0  0  0  0  0  0  0  0  0  0  0
    3.8634   -4.5406    1.7178 H   0  0  0  0  0  0  0  0  0  0  0  0
    5.1274   -3.3302    1.7455 H   0  0  0  0  0  0  0  0  0  0  0  0
   -2.8298   -2.9159   -1.0544 H   0  0  0  0  0  0  0  0  0  0  0  0
  1  2  2  0  0  0  0
  1 26  1  0  0  0  0
  2  3  1  0  0  0  0
  2 23  1  0  0  0  0
  3  4  2  0  0  0  0
  3 27  1  0  0  0  0
  4  5  1  0  0  0  0
  4  7  1  0  0  0  0
  5  6  2  0  0  0  0
  6  1  1  0  0  0  0
  6 28  1  0  0  0  0
  7  8  2  0  0  0  0
  8  9  1  0  0  0  0
  8 12  1  0  0  0  0
  9 10  2  0  0  0  0
  9 11  1  0  0  0  0
 10  5  1  0  0  0  0
 11 13  2  0  0  0  0
 12 19  1  0  0  0  0
 12 20  1  0  0  0  0
 13 14  1  0  0  0  0
 13 29  1  0  0  0  0
 14 15  2  0  0  0  0
 14 30  1  0  0  0  0
 15 16  1  0  0  0  0
 15 18  1  0  0  0  0
 16 17  2  0  0  0  0
 16 31  1  0  0  0  0
 17 11  1  0  0  0  0
 17 32  1  0  0  0  0
 19 21  1  0  0  0  0
 19 22  1  0  0  0  0
 19 33  1  0  0  0  0
 20 34  1  0  0  0  0
 20 35  1  0  0  0  0
 20 36  1  0  0  0  0
 21 37  1  0  0  0  0
 21 38  1  0  0  0  0
 21 39  1  0  0  0  0
 22 40  1  0  0  0  0
 22 41  1  0  0  0  0
 22 42  1  0  0  0  0
 23 24  1  0  0  0  0
 23 25  2  0  0  0  0
 24 43  1  0  0  0  0
M  END
>  <Mol_ID>
5694

>  <Formula>
C19H18FN3O2

>  <MolWeight>
339.3635232

>  <Cat>
S0995

>  <Name>
BioE-1115

>  <Synonyms>
N/A

>  <Target>
Casein Kinase,Serine/threonin kinase

>  <Form>
Free Base

>  <CAS>
1268863-35-9

>  <URL>
http://www.selleckchem.com/products/bioe-1115.html

$$$$
