Biotinyl Tyramide
 OpenBabel08302521313D

 50 52  0  0  0  0  0  0  0  0999 V2000
   -1.3407    1.1405    0.5637 S   0  0  0  0  0  0  0  0  0  0  0  0
    1.0252   -2.4560   -1.3072 O   0  0  0  0  0  0  0  0  0  0  0  0
    2.9151    5.5790   -0.3904 O   0  0  0  0  0  0  0  0  0  0  0  0
   -2.8927    7.2519    5.2517 O   0  0  0  0  0  0  0  0  0  0  0  0
    1.1066   -0.1514   -1.3414 N   0  0  0  0  0  0  0  0  0  0  0  0
   -0.8141   -1.1672   -1.8254 N   0  0  0  0  0  0  0  0  0  0  0  0
    2.5795    6.5385    1.6661 N   0  0  0  0  0  0  0  0  0  0  0  0
    0.1980    0.9500   -1.5945 C   0  0  1  0  0  0  0  0  0  0  0  0
   -1.1411    0.2391   -1.9240 C   0  0  2  0  0  0  0  0  0  0  0  0
   -0.0051    1.9069   -0.4063 C   0  0  2  0  0  0  0  0  0  0  0  0
   -2.2271    0.6553   -0.9270 C   0  0  0  0  0  0  0  0  0  0  0  0
    1.2553    2.2154    0.4069 C   0  0  0  0  0  0  0  0  0  0  0  0
    0.9916    3.2281    1.5281 C   0  0  0  0  0  0  0  0  0  0  0  0
    0.4946   -1.3735   -1.4680 C   0  0  0  0  0  0  0  0  0  0  0  0
    2.2360    3.5695    2.3486 C   0  0  0  0  0  0  0  0  0  0  0  0
    3.3569    4.2437    1.5620 C   0  0  0  0  0  0  0  0  0  0  0  0
    2.9282    5.5035    0.8355 C   0  0  0  0  0  0  0  0  0  0  0  0
    2.1208    7.8149    1.1468 C   0  0  0  0  0  0  0  0  0  0  0  0
    1.6692    8.7595    2.2598 C   0  0  0  0  0  0  0  0  0  0  0  0
    0.4774    8.2570    3.0427 C   0  0  0  0  0  0  0  0  0  0  0  0
    0.6043    7.9373    4.4029 C   0  0  0  0  0  0  0  0  0  0  0  0
   -0.7804    8.1478    2.4324 C   0  0  0  0  0  0  0  0  0  0  0  0
   -0.5165    7.5764    5.1536 C   0  0  0  0  0  0  0  0  0  0  0  0
   -1.8992    7.7831    3.1818 C   0  0  0  0  0  0  0  0  0  0  0  0
   -1.7634    7.5280    4.5401 C   0  0  0  0  0  0  0  0  0  0  0  0
   -2.6717    7.2709    6.1973 H   0  0  0  0  0  0  0  0  0  0  0  0
    2.0906   -0.0908   -1.1268 H   0  0  0  0  0  0  0  0  0  0  0  0
   -1.4420   -1.9507   -1.9560 H   0  0  0  0  0  0  0  0  0  0  0  0
    2.4606    6.3514    2.6527 H   0  0  0  0  0  0  0  0  0  0  0  0
    0.5899    1.4921   -2.4625 H   0  0  0  0  0  0  0  0  0  0  0  0
   -1.4679    0.4261   -2.9505 H   0  0  0  0  0  0  0  0  0  0  0  0
   -0.4127    2.8493   -0.7927 H   0  0  0  0  0  0  0  0  0  0  0  0
   -2.7650    1.5365   -1.2944 H   0  0  0  0  0  0  0  0  0  0  0  0
   -2.9517   -0.1384   -0.7185 H   0  0  0  0  0  0  0  0  0  0  0  0
    1.6789    1.3004    0.8389 H   0  0  0  0  0  0  0  0  0  0  0  0
    2.0087    2.6171   -0.2810 H   0  0  0  0  0  0  0  0  0  0  0  0
    0.5557    4.1417    1.1071 H   0  0  0  0  0  0  0  0  0  0  0  0
    0.2484    2.8234    2.2243 H   0  0  0  0  0  0  0  0  0  0  0  0
    1.9277    4.2126    3.1818 H   0  0  0  0  0  0  0  0  0  0  0  0
    2.6289    2.6502    2.8013 H   0  0  0  0  0  0  0  0  0  0  0  0
    4.1705    4.5096    2.2470 H   0  0  0  0  0  0  0  0  0  0  0  0
    3.7843    3.5514    0.8291 H   0  0  0  0  0  0  0  0  0  0  0  0
    2.9583    8.2638    0.6027 H   0  0  0  0  0  0  0  0  0  0  0  0
    1.3211    7.6324    0.4204 H   0  0  0  0  0  0  0  0  0  0  0  0
    2.5083    8.9407    2.9440 H   0  0  0  0  0  0  0  0  0  0  0  0
    1.4089    9.7367    1.8331 H   0  0  0  0  0  0  0  0  0  0  0  0
    1.5729    7.9907    4.8951 H   0  0  0  0  0  0  0  0  0  0  0  0
   -0.9049    8.3699    1.3749 H   0  0  0  0  0  0  0  0  0  0  0  0
   -0.4012    7.3539    6.2096 H   0  0  0  0  0  0  0  0  0  0  0  0
   -2.8773    7.7250    2.7129 H   0  0  0  0  0  0  0  0  0  0  0  0
  1 10  1  0  0  0  0
  1 11  1  0  0  0  0
  2 14  2  0  0  0  0
  3 17  2  0  0  0  0
  4 25  1  0  0  0  0
  4 26  1  0  0  0  0
  5 14  1  0  0  0  0
  5 27  1  0  0  0  0
  6 14  1  0  0  0  0
  6 28  1  0  0  0  0
  7 17  1  0  0  0  0
  7 18  1  0  0  0  0
  7 29  1  0  0  0  0
  8  5  1  0  0  0  0
  8  9  1  0  0  0  0
  8 10  1  0  0  0  0
  8 30  1  6  0  0  0
  9  6  1  0  0  0  0
  9 11  1  0  0  0  0
  9 31  1  6  0  0  0
 10 12  1  0  0  0  0
 10 32  1  6  0  0  0
 11 33  1  0  0  0  0
 11 34  1  0  0  0  0
 12 13  1  0  0  0  0
 12 35  1  0  0  0  0
 12 36  1  0  0  0  0
 13 15  1  0  0  0  0
 13 37  1  0  0  0  0
 13 38  1  0  0  0  0
 15 16  1  0  0  0  0
 15 39  1  0  0  0  0
 15 40  1  0  0  0  0
 16 17  1  0  0  0  0
 16 41  1  0  0  0  0
 16 42  1  0  0  0  0
 18 19  1  0  0  0  0
 18 43  1  0  0  0  0
 18 44  1  0  0  0  0
 19 20  1  0  0  0  0
 19 45  1  0  0  0  0
 19 46  1  0  0  0  0
 20 21  2  0  0  0  0
 20 22  1  0  0  0  0
 21 23  1  0  0  0  0
 21 47  1  0  0  0  0
 22 24  2  0  0  0  0
 22 48  1  0  0  0  0
 23 25  2  0  0  0  0
 23 49  1  0  0  0  0
 24 25  1  0  0  0  0
 24 50  1  0  0  0  0
M  END
>  <Mol_ID>
6013

>  <Formula>
C18H25N3O3S

>  <MolWeight>
363.4744

>  <Cat>
S6318

>  <Name>
Biotinyl Tyramide

>  <Synonyms>
Biotin Tyramide

>  <Target>
Others

>  <Form>
Free Base

>  <CAS>
41994-02-9

>  <URL>
http://www.selleckchem.com/products/biotinyl-tyramide.html

$$$$
