Bis-PEG3-acid
 OpenBabel08302521323D

 35 34  0  0  0  0  0  0  0  0999 V2000
    1.2474   -0.2836   -0.0404 O   0  0  0  0  0  0  0  0  0  0  0  0
   -1.6761   -1.0232   -0.7176 O   0  0  0  0  0  0  0  0  0  0  0  0
    0.6292   -1.5698    0.0735 C   0  0  0  0  0  0  0  0  0  0  0  0
   -0.4640   -1.7345   -0.9889 C   0  0  0  0  0  0  0  0  0  0  0  0
    3.8724    1.5536    1.7522 O   0  0  0  0  0  0  0  0  0  0  0  0
    2.3032   -0.1073    0.9089 C   0  0  0  0  0  0  0  0  0  0  0  0
    2.7863    1.3404    0.8458 C   0  0  0  0  0  0  0  0  0  0  0  0
   -1.2051    2.4958   -2.0010 C   0  0  0  0  0  0  0  0  0  0  0  0
   -1.1526    0.9988   -2.0396 C   0  0  0  0  0  0  0  0  0  0  0  0
   -1.5909    0.4040   -0.7074 C   0  0  0  0  0  0  0  0  0  0  0  0
   -1.5959    3.2048   -1.0898 O   0  0  0  0  0  0  0  0  0  0  0  0
   -0.7500    3.0467   -3.1462 O   0  0  0  0  0  0  0  0  0  0  0  0
    5.9782    4.5181    2.6241 C   0  0  0  0  0  0  0  0  0  0  0  0
    5.4782    3.1038    2.6674 C   0  0  0  0  0  0  0  0  0  0  0  0
    4.2975    2.9224    1.7264 C   0  0  0  0  0  0  0  0  0  0  0  0
    5.5936    5.4193    1.8981 O   0  0  0  0  0  0  0  0  0  0  0  0
    6.9691    4.7335    3.5130 O   0  0  0  0  0  0  0  0  0  0  0  0
    1.3955   -2.3366   -0.0863 H   0  0  0  0  0  0  0  0  0  0  0  0
    0.2008   -1.6808    1.0754 H   0  0  0  0  0  0  0  0  0  0  0  0
   -0.0971   -1.4749   -1.9864 H   0  0  0  0  0  0  0  0  0  0  0  0
   -0.7492   -2.7921   -1.0205 H   0  0  0  0  0  0  0  0  0  0  0  0
    1.9527   -0.3381    1.9221 H   0  0  0  0  0  0  0  0  0  0  0  0
    3.1264   -0.7920    0.6740 H   0  0  0  0  0  0  0  0  0  0  0  0
    3.1057    1.5760   -0.1763 H   0  0  0  0  0  0  0  0  0  0  0  0
    1.9554    2.0108    1.0973 H   0  0  0  0  0  0  0  0  0  0  0  0
   -0.1256    0.7028   -2.2755 H   0  0  0  0  0  0  0  0  0  0  0  0
   -1.8050    0.6350   -2.8421 H   0  0  0  0  0  0  0  0  0  0  0  0
   -2.6008    0.7624   -0.4728 H   0  0  0  0  0  0  0  0  0  0  0  0
   -0.9613    0.7412    0.1218 H   0  0  0  0  0  0  0  0  0  0  0  0
   -0.8291    4.0113   -2.9952 H   0  0  0  0  0  0  0  0  0  0  0  0
    5.1755    2.8605    3.6917 H   0  0  0  0  0  0  0  0  0  0  0  0
    6.2922    2.4285    2.3841 H   0  0  0  0  0  0  0  0  0  0  0  0
    4.5818    3.1946    0.7027 H   0  0  0  0  0  0  0  0  0  0  0  0
    3.4650    3.5645    2.0386 H   0  0  0  0  0  0  0  0  0  0  0  0
    7.2101    5.6749    3.3875 H   0  0  0  0  0  0  0  0  0  0  0  0
  1  3  1  0  0  0  0
  1  6  1  0  0  0  0
  2  4  1  0  0  0  0
  2 10  1  0  0  0  0
  3  4  1  0  0  0  0
  3 18  1  0  0  0  0
  3 19  1  0  0  0  0
  4 20  1  0  0  0  0
  4 21  1  0  0  0  0
  5  7  1  0  0  0  0
  5 15  1  0  0  0  0
  6  7  1  0  0  0  0
  6 22  1  0  0  0  0
  6 23  1  0  0  0  0
  7 24  1  0  0  0  0
  7 25  1  0  0  0  0
  8  9  1  0  0  0  0
  8 11  2  0  0  0  0
  8 12  1  0  0  0  0
  9 10  1  0  0  0  0
  9 26  1  0  0  0  0
  9 27  1  0  0  0  0
 10 28  1  0  0  0  0
 10 29  1  0  0  0  0
 12 30  1  0  0  0  0
 13 14  1  0  0  0  0
 13 16  2  0  0  0  0
 13 17  1  0  0  0  0
 14 15  1  0  0  0  0
 14 31  1  0  0  0  0
 14 32  1  0  0  0  0
 15 33  1  0  0  0  0
 15 34  1  0  0  0  0
 17 35  1  0  0  0  0
M  END
>  <Mol_ID>
6199

>  <Formula>
C10H18O7

>  <MolWeight>
250.24572

>  <Cat>
S1350

>  <Name>
Bis-PEG3-acid

>  <Synonyms>
N/A

>  <Target>
PROTAC Linker

>  <Form>
free base

>  <CAS>
96517-92-9

>  <URL>
http://www.selleckchem.com/products/bis-peg3-acid.html

$$$$
