Bis-NH2-C1-PEG3
 OpenBabel08302521323D

 39 38  0  0  0  0  0  0  0  0999 V2000
    1.4293    0.3868    0.5097 O   0  0  0  0  0  0  0  0  0  0  0  0
   -0.7515    0.3503    3.4592 O   0  0  0  0  0  0  0  0  0  0  0  0
    0.9776    0.7818    1.8081 C   0  0  0  0  0  0  0  0  0  0  0  0
   -0.3409    0.0639    2.1232 C   0  0  0  0  0  0  0  0  0  0  0  0
    4.1314   -0.7721    0.8385 O   0  0  0  0  0  0  0  0  0  0  0  0
    2.6183    1.0542    0.0755 C   0  0  0  0  0  0  0  0  0  0  0  0
    3.8921    0.6397    0.8293 C   0  0  0  0  0  0  0  0  0  0  0  0
   -3.6494   -0.5354    5.7335 C   0  0  0  0  0  0  0  0  0  0  0  0
   -2.3079    0.0098    5.2501 C   0  0  0  0  0  0  0  0  0  0  0  0
   -1.9524   -0.3494    3.8092 C   0  0  0  0  0  0  0  0  0  0  0  0
   -3.7137   -1.9918    5.7319 N   0  0  0  0  0  0  0  0  0  0  0  0
    6.0936   -3.1384    0.5864 C   0  0  0  0  0  0  0  0  0  0  0  0
    4.8971   -2.7732   -0.2986 C   0  0  0  0  0  0  0  0  0  0  0  0
    4.6344   -1.2693   -0.4034 C   0  0  0  0  0  0  0  0  0  0  0  0
    5.8744   -2.8575    2.0010 N   0  0  0  0  0  0  0  0  0  0  0  0
    1.7221    0.5165    2.5662 H   0  0  0  0  0  0  0  0  0  0  0  0
    0.8287    1.8656    1.8447 H   0  0  0  0  0  0  0  0  0  0  0  0
   -1.1134    0.3968    1.4172 H   0  0  0  0  0  0  0  0  0  0  0  0
   -0.2103   -1.0152    1.9901 H   0  0  0  0  0  0  0  0  0  0  0  0
    2.7299    0.8126   -0.9869 H   0  0  0  0  0  0  0  0  0  0  0  0
    2.4760    2.1399    0.1380 H   0  0  0  0  0  0  0  0  0  0  0  0
    4.7644    1.1609    0.4183 H   0  0  0  0  0  0  0  0  0  0  0  0
    3.8100    0.9421    1.8798 H   0  0  0  0  0  0  0  0  0  0  0  0
   -3.8143   -0.1795    6.7584 H   0  0  0  0  0  0  0  0  0  0  0  0
   -4.4656   -0.1392    5.1206 H   0  0  0  0  0  0  0  0  0  0  0  0
   -1.5026   -0.3320    5.9146 H   0  0  0  0  0  0  0  0  0  0  0  0
   -2.3190    1.1041    5.3483 H   0  0  0  0  0  0  0  0  0  0  0  0
   -2.7596   -0.0512    3.1302 H   0  0  0  0  0  0  0  0  0  0  0  0
   -1.7844   -1.4290    3.7143 H   0  0  0  0  0  0  0  0  0  0  0  0
   -4.3982   -2.2935    6.4237 H   0  0  0  0  0  0  0  0  0  0  0  0
   -2.8245   -2.3867    6.0318 H   0  0  0  0  0  0  0  0  0  0  0  0
    6.3098   -4.2078    0.4776 H   0  0  0  0  0  0  0  0  0  0  0  0
    6.9833   -2.5981    0.2501 H   0  0  0  0  0  0  0  0  0  0  0  0
    3.9980   -3.2811    0.0749 H   0  0  0  0  0  0  0  0  0  0  0  0
    5.0939   -3.1582   -1.3070 H   0  0  0  0  0  0  0  0  0  0  0  0
    3.8942   -1.0988   -1.1898 H   0  0  0  0  0  0  0  0  0  0  0  0
    5.5566   -0.7423   -0.6678 H   0  0  0  0  0  0  0  0  0  0  0  0
    5.2245   -3.5462    2.3833 H   0  0  0  0  0  0  0  0  0  0  0  0
    5.3638   -1.9680    2.0722 H   0  0  0  0  0  0  0  0  0  0  0  0
  1  3  1  0  0  0  0
  1  6  1  0  0  0  0
  2  4  1  0  0  0  0
  2 10  1  0  0  0  0
  3  4  1  0  0  0  0
  3 16  1  0  0  0  0
  3 17  1  0  0  0  0
  4 18  1  0  0  0  0
  4 19  1  0  0  0  0
  5  7  1  0  0  0  0
  5 14  1  0  0  0  0
  6  7  1  0  0  0  0
  6 20  1  0  0  0  0
  6 21  1  0  0  0  0
  7 22  1  0  0  0  0
  7 23  1  0  0  0  0
  8  9  1  0  0  0  0
  8 11  1  0  0  0  0
  8 24  1  0  0  0  0
  8 25  1  0  0  0  0
  9 10  1  0  0  0  0
  9 26  1  0  0  0  0
  9 27  1  0  0  0  0
 10 28  1  0  0  0  0
 10 29  1  0  0  0  0
 11 30  1  0  0  0  0
 11 31  1  0  0  0  0
 12 13  1  0  0  0  0
 12 15  1  0  0  0  0
 12 32  1  0  0  0  0
 12 33  1  0  0  0  0
 13 14  1  0  0  0  0
 13 34  1  0  0  0  0
 13 35  1  0  0  0  0
 14 36  1  0  0  0  0
 14 37  1  0  0  0  0
 15 38  1  0  0  0  0
 15 39  1  0  0  0  0
M  END
>  <Mol_ID>
6201

>  <Formula>
C10H24N2O3

>  <MolWeight>
220.30916

>  <Cat>
S1772

>  <Name>
Bis-NH2-C1-PEG3

>  <Synonyms>
PROTAC Linker 24

>  <Target>
PROTAC Linker

>  <Form>
free base

>  <CAS>
4246-51-9

>  <URL>
http://www.selleckchem.com/products/bis-nh2-c1-peg3.html

$$$$
