Bisacodyl.cdx
 OpenBabel08302522033D

 46 48  0  0  0  0  0  0  0  0999 V2000
    1.3241   -0.1592    0.0883 C   0  0  0  0  0  0  0  0  0  0  0  0
    0.5168   -1.3110    0.1484 C   0  0  0  0  0  0  0  0  0  0  0  0
   -0.8797   -1.2217    0.1019 C   0  0  0  0  0  0  0  0  0  0  0  0
   -1.4845    0.0265   -0.0040 C   0  0  0  0  0  0  0  0  0  0  0  0
   -0.7068    1.1814   -0.0723 C   0  0  0  0  0  0  0  0  0  0  0  0
    0.6870    1.0890   -0.0068 C   0  0  0  0  0  0  0  0  0  0  0  0
    2.8535   -0.2948    0.1221 C   0  0  0  0  0  0  0  0  0  0  0  0
    3.5526    0.2581   -1.1306 C   0  0  0  0  0  0  0  0  0  0  0  0
    3.4702    0.1318    1.4630 C   0  0  0  0  0  0  0  0  0  0  0  0
    3.5586   -0.8166    2.4991 C   0  0  0  0  0  0  0  0  0  0  0  0
    4.0891   -0.4852    3.7514 C   0  0  0  0  0  0  0  0  0  0  0  0
    4.5450    0.8064    3.9787 C   0  0  0  0  0  0  0  0  0  0  0  0
    4.4530    1.7729    2.9790 C   0  0  0  0  0  0  0  0  0  0  0  0
    3.9211    1.4365    1.7239 C   0  0  0  0  0  0  0  0  0  0  0  0
   -2.8790    0.2193   -0.1219 O   0  0  0  0  0  0  0  0  0  0  0  0
   -3.8141   -0.6275    0.4752 C   0  0  0  0  0  0  0  0  0  0  0  0
   -3.5839   -1.6105    1.1653 O   0  0  0  0  0  0  0  0  0  0  0  0
   -5.1939   -0.1381    0.1420 C   0  0  0  0  0  0  0  0  0  0  0  0
    5.0452    1.2520    5.2244 O   0  0  0  0  0  0  0  0  0  0  0  0
    5.7384    0.4088    6.0950 C   0  0  0  0  0  0  0  0  0  0  0  0
    6.0206   -0.7676    5.9151 O   0  0  0  0  0  0  0  0  0  0  0  0
    6.1120    1.1812    7.3271 C   0  0  0  0  0  0  0  0  0  0  0  0
    4.3402   -0.5830   -1.9218 C   0  0  0  0  0  0  0  0  0  0  0  0
    4.9634   -0.0650   -3.0560 C   0  0  0  0  0  0  0  0  0  0  0  0
    4.7821    1.2715   -3.3838 C   0  0  0  0  0  0  0  0  0  0  0  0
    3.9828    2.0410   -2.5600 C   0  0  0  0  0  0  0  0  0  0  0  0
    3.3785    1.5705   -1.4486 N   0  0  0  0  0  0  0  0  0  0  0  0
    0.9699   -2.2970    0.2283 H   0  0  0  0  0  0  0  0  0  0  0  0
   -1.4650   -2.1347    0.1452 H   0  0  0  0  0  0  0  0  0  0  0  0
   -1.1772    2.1546   -0.1777 H   0  0  0  0  0  0  0  0  0  0  0  0
    1.2748    2.0038   -0.0514 H   0  0  0  0  0  0  0  0  0  0  0  0
    3.0469   -1.3780    0.0700 H   0  0  0  0  0  0  0  0  0  0  0  0
    3.2078   -1.8354    2.3414 H   0  0  0  0  0  0  0  0  0  0  0  0
    4.1281   -1.2479    4.5208 H   0  0  0  0  0  0  0  0  0  0  0  0
    4.7905    2.7896    3.1625 H   0  0  0  0  0  0  0  0  0  0  0  0
    3.8663    2.2075    0.9606 H   0  0  0  0  0  0  0  0  0  0  0  0
   -5.3101    0.9011    0.4605 H   0  0  0  0  0  0  0  0  0  0  0  0
   -5.3769   -0.2351   -0.9310 H   0  0  0  0  0  0  0  0  0  0  0  0
   -5.9311   -0.7436    0.6781 H   0  0  0  0  0  0  0  0  0  0  0  0
    6.6883    2.0681    7.0524 H   0  0  0  0  0  0  0  0  0  0  0  0
    5.2131    1.4601    7.8822 H   0  0  0  0  0  0  0  0  0  0  0  0
    6.7385    0.5535    7.9686 H   0  0  0  0  0  0  0  0  0  0  0  0
    4.4722   -1.6312   -1.6709 H   0  0  0  0  0  0  0  0  0  0  0  0
    5.5829   -0.7021   -3.6812 H   0  0  0  0  0  0  0  0  0  0  0  0
    5.2486    1.7044   -4.2604 H   0  0  0  0  0  0  0  0  0  0  0  0
    3.7963    3.0884   -2.7748 H   0  0  0  0  0  0  0  0  0  0  0  0
  1  2  2  0  0  0  0
  1  7  1  0  0  0  0
  2  3  1  0  0  0  0
  2 28  1  0  0  0  0
  3  4  2  0  0  0  0
  3 29  1  0  0  0  0
  4  5  1  0  0  0  0
  4 15  1  0  0  0  0
  5  6  2  0  0  0  0
  5 30  1  0  0  0  0
  6  1  1  0  0  0  0
  6 31  1  0  0  0  0
  7  8  1  0  0  0  0
  7  9  1  0  0  0  0
  7 32  1  0  0  0  0
  8 23  2  0  0  0  0
  9 10  2  0  0  0  0
 10 11  1  0  0  0  0
 10 33  1  0  0  0  0
 11 12  2  0  0  0  0
 11 34  1  0  0  0  0
 12 13  1  0  0  0  0
 12 19  1  0  0  0  0
 13 14  2  0  0  0  0
 13 35  1  0  0  0  0
 14  9  1  0  0  0  0
 14 36  1  0  0  0  0
 15 16  1  0  0  0  0
 16 17  2  0  0  0  0
 16 18  1  0  0  0  0
 18 37  1  0  0  0  0
 18 38  1  0  0  0  0
 18 39  1  0  0  0  0
 19 20  1  0  0  0  0
 20 21  2  0  0  0  0
 20 22  1  0  0  0  0
 22 40  1  0  0  0  0
 22 41  1  0  0  0  0
 22 42  1  0  0  0  0
 23 24  1  0  0  0  0
 23 43  1  0  0  0  0
 24 25  2  0  0  0  0
 24 44  1  0  0  0  0
 25 26  1  0  0  0  0
 25 45  1  0  0  0  0
 26 27  2  0  0  0  0
 26 46  1  0  0  0  0
 27  8  1  0  0  0  0
M  END
>  <Mol_ID>
1231

>  <Formula>
C22H19NO4

>  <MolWeight>
361.39056

>  <Cat>
S4047

>  <Name>
Bisacodyl

>  <Synonyms>
N/A

>  <Target>
Others

>  <Form>
free base

>  <CAS>
603-50-9

>  <URL>
http://selleckchem.com/products/bisacodyl.html

$$$$
