Bisoprolol Fumarate.cdx
 OpenBabel08302521463D

 66 65  0  0  0  0  0  0  0  0999 V2000
    1.1121   -0.5350   -0.1740 C   0  0  0  0  0  0  0  0  0  0  0  0
    0.1376   -1.5386   -0.0710 C   0  0  0  0  0  0  0  0  0  0  0  0
   -1.1970   -1.1578   -0.2999 C   0  0  0  0  0  0  0  0  0  0  0  0
   -1.5703    0.1849   -0.4425 C   0  0  0  0  0  0  0  0  0  0  0  0
   -0.6208    1.2051   -0.3808 C   0  0  0  0  0  0  0  0  0  0  0  0
    0.7314    0.8296   -0.3233 C   0  0  0  0  0  0  0  0  0  0  0  0
   -0.9333    2.5577   -0.3074 O   0  0  0  0  0  0  0  0  0  0  0  0
   -2.3271    2.8138   -0.0093 C   0  0  0  0  0  0  0  0  0  0  0  0
   -2.6837    4.2934    0.2623 C   0  0  3  0  0  0  0  0  0  0  0  0
   -2.4931    5.0971   -0.9080 O   0  0  0  0  0  0  0  0  0  0  0  0
   -4.1813    4.4050    0.6600 C   0  0  0  0  0  0  0  0  0  0  0  0
   -4.5803    3.6693    1.8705 N   0  0  0  0  0  0  0  0  0  0  0  0
   -3.9376    4.1301    3.1032 C   0  0  0  0  0  0  0  0  0  0  0  0
   -4.3660    5.5429    3.5045 C   0  0  0  0  0  0  0  0  0  0  0  0
   -4.2890    3.1382    4.2105 C   0  0  0  0  0  0  0  0  0  0  0  0
    0.3311   -2.9566    0.4991 C   0  0  0  0  0  0  0  0  0  0  0  0
    1.6025   -3.4207    0.9476 O   0  0  0  0  0  0  0  0  0  0  0  0
    2.0470   -3.0897    2.2707 C   0  0  0  0  0  0  0  0  0  0  0  0
    1.1734   -3.3191    3.5407 C   0  0  0  0  0  0  0  0  0  0  0  0
    0.6926   -4.6381    3.7755 O   0  0  0  0  0  0  0  0  0  0  0  0
    1.4347   -5.4060    4.7200 C   0  0  0  0  0  0  0  0  0  0  0  0
    0.4593   -6.3779    5.3881 C   0  0  0  0  0  0  0  0  0  0  0  0
    2.5157   -6.1396    3.9494 C   0  0  0  0  0  0  0  0  0  0  0  0
   -1.7082    0.0755    3.0133 O   0  0  0  0  0  0  0  0  0  0  0  0
   -0.3886   -0.0037    2.8955 C   0  0  0  0  0  0  0  0  0  0  0  0
    0.4833    1.0706    3.3541 C   0  0  0  0  0  0  0  0  0  0  0  0
    0.0917    1.9626    4.2549 C   0  0  0  0  0  0  0  0  0  0  0  0
    1.1458    2.7132    4.9478 C   0  0  0  0  0  0  0  0  0  0  0  0
    0.6071    3.4102    5.9758 O   0  0  0  0  0  0  0  0  0  0  0  0
    2.3288    2.6623    4.7086 O   0  0  0  0  0  0  0  0  0  0  0  0
    0.1677   -1.0068    2.4975 O   0  0  0  0  0  0  0  0  0  0  0  0
    2.1613   -0.7795   -0.0227 H   0  0  0  0  0  0  0  0  0  0  0  0
   -1.9854   -1.9057   -0.2404 H   0  0  0  0  0  0  0  0  0  0  0  0
   -2.6330    0.3858   -0.5133 H   0  0  0  0  0  0  0  0  0  0  0  0
    1.5023    1.5966   -0.3086 H   0  0  0  0  0  0  0  0  0  0  0  0
   -2.9254    2.4863   -0.8670 H   0  0  0  0  0  0  0  0  0  0  0  0
   -2.5891    2.2446    0.8906 H   0  0  0  0  0  0  0  0  0  0  0  0
   -2.0440    4.7201    1.0391 H   0  0  0  0  0  0  0  0  0  0  0  0
   -1.5334    5.1549   -1.0578 H   0  0  0  0  0  0  0  0  0  0  0  0
   -4.4826    5.4577    0.7274 H   0  0  0  0  0  0  0  0  0  0  0  0
   -4.7818    4.0116   -0.1719 H   0  0  0  0  0  0  0  0  0  0  0  0
   -5.5934    3.7434    1.9678 H   0  0  0  0  0  0  0  0  0  0  0  0
   -2.8482    4.1072    2.9917 H   0  0  0  0  0  0  0  0  0  0  0  0
   -5.4506    5.6204    3.6049 H   0  0  0  0  0  0  0  0  0  0  0  0
   -3.9139    5.8236    4.4625 H   0  0  0  0  0  0  0  0  0  0  0  0
   -4.0433    6.2765    2.7725 H   0  0  0  0  0  0  0  0  0  0  0  0
   -3.9775    2.1256    3.9384 H   0  0  0  0  0  0  0  0  0  0  0  0
   -3.7714    3.4004    5.1404 H   0  0  0  0  0  0  0  0  0  0  0  0
   -5.3663    3.1177    4.4149 H   0  0  0  0  0  0  0  0  0  0  0  0
   -0.4018   -3.1190    1.2986 H   0  0  0  0  0  0  0  0  0  0  0  0
    0.0425   -3.6415   -0.3074 H   0  0  0  0  0  0  0  0  0  0  0  0
    2.9590   -3.6800    2.4045 H   0  0  0  0  0  0  0  0  0  0  0  0
    2.3830   -2.0475    2.2502 H   0  0  0  0  0  0  0  0  0  0  0  0
    1.7289   -2.9417    4.4119 H   0  0  0  0  0  0  0  0  0  0  0  0
    0.2518   -2.7532    3.5236 H   0  0  0  0  0  0  0  0  0  0  0  0
    1.8793   -4.7792    5.5052 H   0  0  0  0  0  0  0  0  0  0  0  0
   -0.4512   -6.5184    4.7964 H   0  0  0  0  0  0  0  0  0  0  0  0
    0.9132   -7.3546    5.5815 H   0  0  0  0  0  0  0  0  0  0  0  0
    0.1426   -5.9802    6.3607 H   0  0  0  0  0  0  0  0  0  0  0  0
    3.3368   -5.4551    3.7173 H   0  0  0  0  0  0  0  0  0  0  0  0
    2.9295   -6.9765    4.5155 H   0  0  0  0  0  0  0  0  0  0  0  0
    2.1219   -6.5032    2.9941 H   0  0  0  0  0  0  0  0  0  0  0  0
   -2.0913    0.8508    3.4411 H   0  0  0  0  0  0  0  0  0  0  0  0
    1.5260    0.9434    3.0617 H   0  0  0  0  0  0  0  0  0  0  0  0
   -0.9303    2.0444    4.5796 H   0  0  0  0  0  0  0  0  0  0  0  0
   -0.3568    3.3292    6.0919 H   0  0  0  0  0  0  0  0  0  0  0  0
  1  2  2  0  0  0  0
  1 32  1  0  0  0  0
  2  3  1  0  0  0  0
  2 16  1  0  0  0  0
  3  4  2  0  0  0  0
  3 33  1  0  0  0  0
  4  5  1  0  0  0  0
  4 34  1  0  0  0  0
  5  6  2  0  0  0  0
  5  7  1  0  0  0  0
  6  1  1  0  0  0  0
  6 35  1  0  0  0  0
  7  8  1  0  0  0  0
  8  9  1  0  0  0  0
  8 36  1  0  0  0  0
  8 37  1  0  0  0  0
  9 10  1  0  0  0  0
  9 11  1  0  0  0  0
  9 38  1  0  0  0  0
 10 39  1  0  0  0  0
 11 12  1  0  0  0  0
 11 40  1  0  0  0  0
 11 41  1  0  0  0  0
 12 13  1  0  0  0  0
 12 42  1  0  0  0  0
 13 14  1  0  0  0  0
 13 15  1  0  0  0  0
 13 43  1  0  0  0  0
 14 44  1  0  0  0  0
 14 45  1  0  0  0  0
 14 46  1  0  0  0  0
 15 47  1  0  0  0  0
 15 48  1  0  0  0  0
 15 49  1  0  0  0  0
 16 17  1  0  0  0  0
 16 50  1  0  0  0  0
 16 51  1  0  0  0  0
 17 18  1  0  0  0  0
 18 19  1  0  0  0  0
 18 52  1  0  0  0  0
 18 53  1  0  0  0  0
 19 20  1  0  0  0  0
 19 54  1  0  0  0  0
 19 55  1  0  0  0  0
 20 21  1  0  0  0  0
 21 22  1  0  0  0  0
 21 23  1  0  0  0  0
 21 56  1  0  0  0  0
 22 57  1  0  0  0  0
 22 58  1  0  0  0  0
 22 59  1  0  0  0  0
 23 60  1  0  0  0  0
 23 61  1  0  0  0  0
 23 62  1  0  0  0  0
 24 25  1  0  0  0  0
 24 63  1  0  0  0  0
 25 26  1  0  0  0  0
 25 31  2  0  0  0  0
 26 27  2  0  0  0  0
 26 64  1  0  0  0  0
 27 28  1  0  0  0  0
 27 65  1  0  0  0  0
 28 29  1  0  0  0  0
 28 30  2  0  0  0  0
 29 66  1  0  0  0  0
M  END
>  <Mol_ID>
969

>  <Formula>
C22H35NO8

>  <MolWeight>
441.5152

>  <Cat>
S1206

>  <Name>
Bisoprolol fumarate

>  <Synonyms>
EMD33512

>  <Target>
Adrenergic Receptor

>  <Form>
fumarate

>  <CAS>
104344-23-2

>  <URL>
http://selleckchem.com/products/Bisoprolol-Fumarate.html

$$$$
