Bisoprolol
 OpenBabel08302521313D

 54 54  0  0  0  0  0  0  0  0999 V2000
    1.5668    0.4451    0.4034 C   0  0  0  0  0  0  0  0  0  0  0  0
    0.4140   -0.3275    0.2855 C   0  0  0  0  0  0  0  0  0  0  0  0
    1.4454    1.8330    0.4998 C   0  0  0  0  0  0  0  0  0  0  0  0
    2.8334   -0.0605    0.5267 O   0  0  0  0  0  0  0  0  0  0  0  0
   -0.8490    0.2784    0.2994 C   0  0  0  0  0  0  0  0  0  0  0  0
    0.1832    2.4429    0.5041 C   0  0  0  0  0  0  0  0  0  0  0  0
    3.1449   -1.2583   -0.1878 C   0  0  0  0  0  0  0  0  0  0  0  0
   -0.9804    1.6665    0.4286 C   0  0  0  0  0  0  0  0  0  0  0  0
    3.5935   -2.4135    0.7289 C   0  0  3  0  0  0  0  0  0  0  0  0
   -2.3468    2.3098    0.4415 C   0  0  0  0  0  0  0  0  0  0  0  0
    2.5569   -2.8267    1.8024 C   0  0  0  0  0  0  0  0  0  0  0  0
    3.9186   -3.5545   -0.0931 O   0  0  0  0  0  0  0  0  0  0  0  0
   -3.2409    1.7503    1.4053 O   0  0  0  0  0  0  0  0  0  0  0  0
    3.0803   -3.9474    2.6069 N   0  0  0  0  0  0  0  0  0  0  0  0
   -2.9558    2.0248    2.7792 C   0  0  0  0  0  0  0  0  0  0  0  0
    2.1296   -4.5114    3.5717 C   0  0  0  0  0  0  0  0  0  0  0  0
   -2.9158    3.5143    3.1390 C   0  0  0  0  0  0  0  0  0  0  0  0
    2.7512   -5.7614    4.2100 C   0  0  0  0  0  0  0  0  0  0  0  0
    1.7807   -3.5123    4.6758 C   0  0  0  0  0  0  0  0  0  0  0  0
   -2.9631    3.7914    4.5383 O   0  0  0  0  0  0  0  0  0  0  0  0
   -1.8975    3.2870    5.3465 C   0  0  0  0  0  0  0  0  0  0  0  0
   -0.5237    3.7569    4.8770 C   0  0  0  0  0  0  0  0  0  0  0  0
   -2.1518    3.7877    6.7682 C   0  0  0  0  0  0  0  0  0  0  0  0
    0.4583   -1.4069    0.2110 H   0  0  0  0  0  0  0  0  0  0  0  0
    2.3368    2.4519    0.5736 H   0  0  0  0  0  0  0  0  0  0  0  0
   -1.7387   -0.3434    0.2226 H   0  0  0  0  0  0  0  0  0  0  0  0
    0.1194    3.5274    0.5632 H   0  0  0  0  0  0  0  0  0  0  0  0
    2.3628   -1.5795   -0.8865 H   0  0  0  0  0  0  0  0  0  0  0  0
    3.9967   -1.0112   -0.8369 H   0  0  0  0  0  0  0  0  0  0  0  0
    4.5200   -2.1124    1.2365 H   0  0  0  0  0  0  0  0  0  0  0  0
   -2.2887    3.3955    0.5639 H   0  0  0  0  0  0  0  0  0  0  0  0
   -2.8007    2.1430   -0.5429 H   0  0  0  0  0  0  0  0  0  0  0  0
    2.3407   -1.9664    2.4430 H   0  0  0  0  0  0  0  0  0  0  0  0
    1.6346   -3.1502    1.3083 H   0  0  0  0  0  0  0  0  0  0  0  0
    3.1020   -4.0704   -0.2144 H   0  0  0  0  0  0  0  0  0  0  0  0
    3.4414   -4.6746    1.9869 H   0  0  0  0  0  0  0  0  0  0  0  0
   -3.7514    1.5468    3.3639 H   0  0  0  0  0  0  0  0  0  0  0  0
   -2.0280    1.5191    3.0714 H   0  0  0  0  0  0  0  0  0  0  0  0
    1.2119   -4.8223    3.0578 H   0  0  0  0  0  0  0  0  0  0  0  0
   -2.0469    4.0089    2.6993 H   0  0  0  0  0  0  0  0  0  0  0  0
   -3.7882    4.0061    2.6927 H   0  0  0  0  0  0  0  0  0  0  0  0
    3.6902   -5.5260    4.7234 H   0  0  0  0  0  0  0  0  0  0  0  0
    2.0709   -6.2014    4.9475 H   0  0  0  0  0  0  0  0  0  0  0  0
    2.9605   -6.5304    3.4576 H   0  0  0  0  0  0  0  0  0  0  0  0
    1.2039   -2.6686    4.2855 H   0  0  0  0  0  0  0  0  0  0  0  0
    1.1735   -3.9877    5.4540 H   0  0  0  0  0  0  0  0  0  0  0  0
    2.6849   -3.1183    5.1535 H   0  0  0  0  0  0  0  0  0  0  0  0
   -1.9387    2.1921    5.3576 H   0  0  0  0  0  0  0  0  0  0  0  0
   -0.5245    4.8325    4.6714 H   0  0  0  0  0  0  0  0  0  0  0  0
    0.2480    3.5400    5.6228 H   0  0  0  0  0  0  0  0  0  0  0  0
   -0.2362    3.2503    3.9504 H   0  0  0  0  0  0  0  0  0  0  0  0
   -2.1427    4.8834    6.8040 H   0  0  0  0  0  0  0  0  0  0  0  0
   -1.3972    3.4115    7.4665 H   0  0  0  0  0  0  0  0  0  0  0  0
   -3.1394    3.4702    7.1197 H   0  0  0  0  0  0  0  0  0  0  0  0
  1  2  2  0  0  0  0
  1  3  1  0  0  0  0
  1  4  1  0  0  0  0
  2  5  1  0  0  0  0
  2 24  1  0  0  0  0
  3  6  2  0  0  0  0
  3 25  1  0  0  0  0
  4  7  1  0  0  0  0
  5  8  2  0  0  0  0
  5 26  1  0  0  0  0
  6  8  1  0  0  0  0
  6 27  1  0  0  0  0
  7  9  1  0  0  0  0
  7 28  1  0  0  0  0
  7 29  1  0  0  0  0
  8 10  1  0  0  0  0
  9 11  1  0  0  0  0
  9 12  1  0  0  0  0
  9 30  1  0  0  0  0
 10 13  1  0  0  0  0
 10 31  1  0  0  0  0
 10 32  1  0  0  0  0
 11 14  1  0  0  0  0
 11 33  1  0  0  0  0
 11 34  1  0  0  0  0
 12 35  1  0  0  0  0
 13 15  1  0  0  0  0
 14 16  1  0  0  0  0
 14 36  1  0  0  0  0
 15 17  1  0  0  0  0
 15 37  1  0  0  0  0
 15 38  1  0  0  0  0
 16 18  1  0  0  0  0
 16 19  1  0  0  0  0
 16 39  1  0  0  0  0
 17 20  1  0  0  0  0
 17 40  1  0  0  0  0
 17 41  1  0  0  0  0
 18 42  1  0  0  0  0
 18 43  1  0  0  0  0
 18 44  1  0  0  0  0
 19 45  1  0  0  0  0
 19 46  1  0  0  0  0
 19 47  1  0  0  0  0
 20 21  1  0  0  0  0
 21 22  1  0  0  0  0
 21 23  1  0  0  0  0
 21 48  1  0  0  0  0
 22 49  1  0  0  0  0
 22 50  1  0  0  0  0
 22 51  1  0  0  0  0
 23 52  1  0  0  0  0
 23 53  1  0  0  0  0
 23 54  1  0  0  0  0
M  END
>  <Mol_ID>
5798

>  <Formula>
C18H31NO4

>  <MolWeight>
325.44304

>  <Cat>
S5942

>  <Name>
Bisoprolol

>  <Synonyms>
N/A

>  <Target>
Adrenergic Receptor

>  <Form>
Free Base

>  <CAS>
66722-44-9

>  <URL>
http://www.selleckchem.com/products/bisoprolol.html

$$$$
