BIX02189.cdx
 OpenBabel08302520013D

 61 64  0  0  0  0  0  0  0  0999 V2000
    2.7072   -0.6893    0.0163 C   0  0  0  0  0  0  0  0  0  0  0  0
    2.7880    0.7258    0.0622 C   0  0  0  0  0  0  0  0  0  0  0  0
    1.6111    1.4668   -0.0035 C   0  0  0  0  0  0  0  0  0  0  0  0
    0.4097    0.7759   -0.0278 C   0  0  0  0  0  0  0  0  0  0  0  0
    0.3123   -0.6219   -0.0254 C   0  0  0  0  0  0  0  0  0  0  0  0
    1.4758   -1.3694   -0.0286 C   0  0  0  0  0  0  0  0  0  0  0  0
   -0.8479    1.3573   -0.1179 N   0  0  0  0  0  0  0  0  0  0  0  0
   -1.8384    0.3981   -0.2362 C   0  0  0  0  0  0  0  0  0  0  0  0
   -1.1284   -0.9303   -0.1035 C   0  0  0  0  0  0  0  0  0  0  0  0
    4.1586    1.3372    0.0538 C   0  0  0  0  0  0  0  0  0  0  0  0
    4.4431    2.5568    0.6809 N   0  0  0  0  0  0  0  0  0  0  0  0
    5.0354    0.6897   -0.5230 O   0  0  0  0  0  0  0  0  0  0  0  0
   -3.0175    0.6085   -0.4365 O   0  0  0  0  0  0  0  0  0  0  0  0
   -1.8338   -2.0811   -0.0281 C   0  0  0  0  0  0  0  0  0  0  0  0
   -3.2164   -2.2013   -0.1958 N   0  0  0  0  0  0  0  0  0  0  0  0
   -1.1568   -3.3908    0.1194 C   0  0  0  0  0  0  0  0  0  0  0  0
   -0.8068   -3.8979    1.3750 C   0  0  0  0  0  0  0  0  0  0  0  0
   -0.2417   -5.1710    1.4952 C   0  0  0  0  0  0  0  0  0  0  0  0
   -0.0161   -5.9443    0.3548 C   0  0  0  0  0  0  0  0  0  0  0  0
   -0.3437   -5.4433   -0.9031 C   0  0  0  0  0  0  0  0  0  0  0  0
   -0.9156   -4.1743   -1.0226 C   0  0  0  0  0  0  0  0  0  0  0  0
   -4.1583   -2.1135    0.8767 C   0  0  0  0  0  0  0  0  0  0  0  0
   -3.8011   -1.9392    2.2183 C   0  0  0  0  0  0  0  0  0  0  0  0
   -4.7734   -1.9137    3.2352 C   0  0  0  0  0  0  0  0  0  0  0  0
   -6.1237   -2.0590    2.8930 C   0  0  0  0  0  0  0  0  0  0  0  0
   -6.4953   -2.2162    1.5603 C   0  0  0  0  0  0  0  0  0  0  0  0
   -5.5191   -2.2443    0.5627 C   0  0  0  0  0  0  0  0  0  0  0  0
   -4.3580   -1.7747    4.6847 C   0  0  0  0  0  0  0  0  0  0  0  0
   -4.6354   -2.9763    5.4934 N   0  0  0  0  0  0  0  0  0  0  0  0
   -3.9064   -4.1467    4.9967 C   0  0  0  0  0  0  0  0  0  0  0  0
   -4.2786   -2.7282    6.8912 C   0  0  0  0  0  0  0  0  0  0  0  0
    5.8155    3.0461    0.6374 C   0  0  0  0  0  0  0  0  0  0  0  0
    3.5240    3.3685    1.4642 C   0  0  0  0  0  0  0  0  0  0  0  0
    3.6259   -1.2768   -0.0173 H   0  0  0  0  0  0  0  0  0  0  0  0
    1.6036    2.5424   -0.0904 H   0  0  0  0  0  0  0  0  0  0  0  0
    1.4643   -2.4519   -0.0980 H   0  0  0  0  0  0  0  0  0  0  0  0
   -1.0474    2.3440   -0.1677 H   0  0  0  0  0  0  0  0  0  0  0  0
   -3.5469   -1.5158   -0.8820 H   0  0  0  0  0  0  0  0  0  0  0  0
   -0.9874   -3.3174    2.2735 H   0  0  0  0  0  0  0  0  0  0  0  0
   -0.0011   -5.5691    2.4755 H   0  0  0  0  0  0  0  0  0  0  0  0
    0.4033   -6.9426    0.4496 H   0  0  0  0  0  0  0  0  0  0  0  0
   -0.1757   -6.0474   -1.7911 H   0  0  0  0  0  0  0  0  0  0  0  0
   -1.1921   -3.8044   -2.0068 H   0  0  0  0  0  0  0  0  0  0  0  0
   -2.7597   -1.8142    2.4923 H   0  0  0  0  0  0  0  0  0  0  0  0
   -6.8840   -2.0715    3.6709 H   0  0  0  0  0  0  0  0  0  0  0  0
   -7.5428   -2.3358    1.2981 H   0  0  0  0  0  0  0  0  0  0  0  0
   -5.8252   -2.3851   -0.4707 H   0  0  0  0  0  0  0  0  0  0  0  0
   -3.2947   -1.5059    4.7455 H   0  0  0  0  0  0  0  0  0  0  0  0
   -4.9117   -0.9194    5.0962 H   0  0  0  0  0  0  0  0  0  0  0  0
   -2.8217   -3.9904    5.0013 H   0  0  0  0  0  0  0  0  0  0  0  0
   -4.1310   -5.0247    5.6129 H   0  0  0  0  0  0  0  0  0  0  0  0
   -4.2145   -4.4114    3.9798 H   0  0  0  0  0  0  0  0  0  0  0  0
   -3.2134   -2.4977    7.0108 H   0  0  0  0  0  0  0  0  0  0  0  0
   -4.8600   -1.8931    7.2973 H   0  0  0  0  0  0  0  0  0  0  0  0
   -4.5117   -3.6020    7.5101 H   0  0  0  0  0  0  0  0  0  0  0  0
    5.8223    4.0383    0.1769 H   0  0  0  0  0  0  0  0  0  0  0  0
    6.1903    3.1201    1.6640 H   0  0  0  0  0  0  0  0  0  0  0  0
    6.4841    2.3902    0.0753 H   0  0  0  0  0  0  0  0  0  0  0  0
    2.8548    3.9056    0.7883 H   0  0  0  0  0  0  0  0  0  0  0  0
    2.9585    2.7387    2.1542 H   0  0  0  0  0  0  0  0  0  0  0  0
    4.0740    4.1214    2.0383 H   0  0  0  0  0  0  0  0  0  0  0  0
  1  2  2  0  0  0  0
  1 34  1  0  0  0  0
  2  3  1  0  0  0  0
  2 10  1  0  0  0  0
  3  4  2  0  0  0  0
  3 35  1  0  0  0  0
  4  5  1  0  0  0  0
  4  7  1  0  0  0  0
  5  6  2  0  0  0  0
  6  1  1  0  0  0  0
  6 36  1  0  0  0  0
  7  8  1  0  0  0  0
  7 37  1  0  0  0  0
  8  9  1  0  0  0  0
  8 13  2  0  0  0  0
  9  5  1  0  0  0  0
  9 14  2  0  0  0  0
 10 11  1  0  0  0  0
 10 12  2  0  0  0  0
 11 32  1  0  0  0  0
 11 33  1  0  0  0  0
 14 15  1  0  0  0  0
 14 16  1  0  0  0  0
 15 22  1  0  0  0  0
 15 38  1  0  0  0  0
 16 17  2  0  0  0  0
 17 18  1  0  0  0  0
 17 39  1  0  0  0  0
 18 19  2  0  0  0  0
 18 40  1  0  0  0  0
 19 20  1  0  0  0  0
 19 41  1  0  0  0  0
 20 21  2  0  0  0  0
 20 42  1  0  0  0  0
 21 16  1  0  0  0  0
 21 43  1  0  0  0  0
 22 23  2  0  0  0  0
 23 24  1  0  0  0  0
 23 44  1  0  0  0  0
 24 25  2  0  0  0  0
 24 28  1  0  0  0  0
 25 26  1  0  0  0  0
 25 45  1  0  0  0  0
 26 27  2  0  0  0  0
 26 46  1  0  0  0  0
 27 22  1  0  0  0  0
 27 47  1  0  0  0  0
 28 29  1  0  0  0  0
 28 48  1  0  0  0  0
 28 49  1  0  0  0  0
 29 30  1  0  0  0  0
 29 31  1  0  0  0  0
 30 50  1  0  0  0  0
 30 51  1  0  0  0  0
 30 52  1  0  0  0  0
 31 53  1  0  0  0  0
 31 54  1  0  0  0  0
 31 55  1  0  0  0  0
 32 56  1  0  0  0  0
 32 57  1  0  0  0  0
 32 58  1  0  0  0  0
 33 59  1  0  0  0  0
 33 60  1  0  0  0  0
 33 61  1  0  0  0  0
M  END
>  <Mol_ID>
308

>  <Formula>
C27H28N4O2

>  <MolWeight>
440.53682

>  <Cat>
S1531

>  <Name>
BIX 02189

>  <Synonyms>
N/A

>  <Target>
ERK,MEK

>  <Form>
free base

>  <CAS>
1094614-85-3

>  <URL>
http://selleckchem.com/products/BIX-02189.html

$$$$
