Blinin
 OpenBabel08302521223D

 60 62  0  0  0  0  0  0  0  0999 V2000
   -2.1665   -2.0399    0.0857 O   0  0  0  0  0  0  0  0  0  0  0  0
   -1.5112   -2.3432   -1.0629 C   0  0  0  0  0  0  0  0  0  0  0  0
   -1.1660   -3.7645   -1.0303 C   0  0  0  0  0  0  0  0  0  0  0  0
   -1.5516   -4.2356    0.1188 C   0  0  0  0  0  0  0  0  0  0  0  0
   -2.2289   -3.2092    0.9108 C   0  0  0  0  0  0  0  0  0  0  0  0
   -1.2596   -1.5761   -1.9661 O   0  0  0  0  0  0  0  0  0  0  0  0
   -1.4064   -5.6423    0.5593 C   0  0  0  0  0  0  0  0  0  0  0  0
   -0.0064   -6.2675    0.3386 C   0  0  0  0  0  0  0  0  0  0  0  0
    1.2447   -6.1169    1.2847 C   0  0  1  0  0  0  0  0  0  0  0  0
    2.2618   -7.2721    0.8029 C   0  0  1  0  0  0  0  0  0  0  0  0
    3.3039   -7.5695    1.8719 C   0  0  0  0  0  0  0  0  0  0  0  0
    4.2682   -6.2977    2.0042 C   0  0  0  0  0  0  0  0  0  0  0  0
    3.4360   -5.0305    2.6513 C   0  0  1  0  0  0  0  0  0  0  0  0
    3.5296   -3.5114    2.9253 C   0  0  0  0  0  0  0  0  0  0  0  0
    3.8887   -2.5854    2.0075 C   0  0  0  0  0  0  0  0  0  0  0  0
    3.3330   -2.7417    0.6247 C   0  0  2  0  0  0  0  0  0  0  0  0
    2.0116   -3.5756    0.7102 C   0  0  0  0  0  0  0  0  0  0  0  0
    2.3122   -4.9506    1.3589 C   0  0  2  0  0  0  0  0  0  0  0  0
    1.8690   -8.3564   -0.2067 C   0  0  0  0  0  0  0  0  0  0  0  0
    0.6591   -6.0505    2.7084 C   0  0  0  0  0  0  0  0  0  0  0  0
    2.4858   -2.8917    3.9157 C   0  0  0  0  0  0  0  0  0  0  0  0
    1.6367   -3.8350    4.5440 O   0  0  0  0  0  0  0  0  0  0  0  0
    4.3389   -3.3321   -0.1731 O   0  0  0  0  0  0  0  0  0  0  0  0
    3.6988   -5.6031    4.1768 C   0  0  0  0  0  0  0  0  0  0  0  0
    3.7499   -4.7203    5.3527 O   0  0  0  0  0  0  0  0  0  0  0  0
    4.8737   -4.0023    5.6462 C   0  0  0  0  0  0  0  0  0  0  0  0
    5.9445   -4.0724    5.0763 O   0  0  0  0  0  0  0  0  0  0  0  0
    4.5846   -3.0924    6.8174 C   0  0  0  0  0  0  0  0  0  0  0  0
   -0.6216   -4.2476   -1.8501 H   0  0  0  0  0  0  0  0  0  0  0  0
   -1.7088   -2.9983    1.8506 H   0  0  0  0  0  0  0  0  0  0  0  0
   -3.2751   -3.4421    1.1091 H   0  0  0  0  0  0  0  0  0  0  0  0
   -1.7790   -5.7401    1.5885 H   0  0  0  0  0  0  0  0  0  0  0  0
   -2.1214   -6.2303   -0.0225 H   0  0  0  0  0  0  0  0  0  0  0  0
   -0.2859   -7.3267    0.4692 H   0  0  0  0  0  0  0  0  0  0  0  0
    0.2780   -6.1681   -0.7091 H   0  0  0  0  0  0  0  0  0  0  0  0
    2.8964   -6.7975    0.0420 H   0  0  0  0  0  0  0  0  0  0  0  0
    2.8062   -7.8152    2.8157 H   0  0  0  0  0  0  0  0  0  0  0  0
    3.8773   -8.4656    1.6112 H   0  0  0  0  0  0  0  0  0  0  0  0
    5.1336   -6.6458    2.5826 H   0  0  0  0  0  0  0  0  0  0  0  0
    4.7129   -6.0547    1.0334 H   0  0  0  0  0  0  0  0  0  0  0  0
    3.8974   -1.5400    2.3098 H   0  0  0  0  0  0  0  0  0  0  0  0
    3.1022   -1.7525    0.2080 H   0  0  0  0  0  0  0  0  0  0  0  0
    1.2339   -3.0444    1.2565 H   0  0  0  0  0  0  0  0  0  0  0  0
    1.6601   -3.7317   -0.3181 H   0  0  0  0  0  0  0  0  0  0  0  0
    2.9872   -5.1609    0.5297 H   0  0  0  0  0  0  0  0  0  0  0  0
    1.6721   -7.8716   -1.1814 H   0  0  0  0  0  0  0  0  0  0  0  0
    2.7153   -9.0257   -0.4058 H   0  0  0  0  0  0  0  0  0  0  0  0
    0.9884   -8.9506    0.0462 H   0  0  0  0  0  0  0  0  0  0  0  0
    0.7047   -5.0031    3.0190 H   0  0  0  0  0  0  0  0  0  0  0  0
   -0.4056   -6.2411    2.8041 H   0  0  0  0  0  0  0  0  0  0  0  0
    1.1457   -6.6720    3.4475 H   0  0  0  0  0  0  0  0  0  0  0  0
    2.9905   -2.2868    4.6726 H   0  0  0  0  0  0  0  0  0  0  0  0
    1.8002   -2.2382    3.3722 H   0  0  0  0  0  0  0  0  0  0  0  0
    1.1494   -3.3900    5.2534 H   0  0  0  0  0  0  0  0  0  0  0  0
    3.9784   -3.4512   -1.0659 H   0  0  0  0  0  0  0  0  0  0  0  0
    3.0363   -6.4317    4.4399 H   0  0  0  0  0  0  0  0  0  0  0  0
    4.7131   -6.0235    4.2358 H   0  0  0  0  0  0  0  0  0  0  0  0
    3.5579   -2.7152    6.7665 H   0  0  0  0  0  0  0  0  0  0  0  0
    4.7306   -3.6164    7.7549 H   0  0  0  0  0  0  0  0  0  0  0  0
    5.2418   -2.2143    6.7746 H   0  0  0  0  0  0  0  0  0  0  0  0
  1  2  1  0  0  0  0
  1  5  1  0  0  0  0
  2  3  1  0  0  0  0
  2  6  2  0  0  0  0
  3  4  2  0  0  0  0
  3 29  1  0  0  0  0
  4  5  1  0  0  0  0
  4  7  1  0  0  0  0
  5 30  1  0  0  0  0
  5 31  1  0  0  0  0
  7  8  1  0  0  0  0
  7 32  1  0  0  0  0
  7 33  1  0  0  0  0
  8 34  1  0  0  0  0
  8 35  1  0  0  0  0
  9 10  1  0  0  0  0
  9 18  1  0  0  0  0
  9  8  1  6  0  0  0
  9 20  1  0  0  0  0
 10 11  1  0  0  0  0
 10 19  1  0  0  0  0
 10 36  1  6  0  0  0
 11 12  1  0  0  0  0
 11 37  1  0  0  0  0
 11 38  1  0  0  0  0
 12 13  1  0  0  0  0
 12 39  1  0  0  0  0
 12 40  1  0  0  0  0
 13 14  1  0  0  0  0
 13 18  1  0  0  0  0
 13 24  1  1  0  0  0
 14 15  2  0  0  0  0
 14 21  1  0  0  0  0
 15 16  1  0  0  0  0
 15 41  1  0  0  0  0
 16 17  1  0  0  0  0
 16 42  1  6  0  0  0
 16 23  1  0  0  0  0
 17 43  1  0  0  0  0
 17 44  1  0  0  0  0
 18 17  1  0  0  0  0
 18 45  1  6  0  0  0
 19 46  1  0  0  0  0
 19 47  1  0  0  0  0
 19 48  1  0  0  0  0
 20 49  1  0  0  0  0
 20 50  1  0  0  0  0
 20 51  1  0  0  0  0
 21 22  1  0  0  0  0
 21 52  1  0  0  0  0
 21 53  1  0  0  0  0
 22 54  1  0  0  0  0
 23 55  1  0  0  0  0
 24 25  1  0  0  0  0
 24 56  1  0  0  0  0
 24 57  1  0  0  0  0
 25 26  1  0  0  0  0
 26 27  2  0  0  0  0
 26 28  1  0  0  0  0
 28 58  1  0  0  0  0
 28 59  1  0  0  0  0
 28 60  1  0  0  0  0
M  END
>  <Mol_ID>
4635

>  <Formula>
C22H32O6

>  <MolWeight>
392.48588

>  <Cat>
S9481

>  <Name>
Blinin

>  <Synonyms>
N/A

>  <Target>
Others

>  <Form>
Free Base

>  <CAS>
125675-09-4

>  <URL>
http://www.selleckchem.com/products/blinin.html

$$$$
