BML-190.cdx
 OpenBabel08302521593D

 53 56  0  0  0  0  0  0  0  0999 V2000
    1.8157    1.0639   -0.9881 C   0  0  0  0  0  0  0  0  0  0  0  0
    0.3187    0.9000   -0.7533 C   0  0  0  0  0  0  0  0  0  0  0  0
    4.3740    3.4495   -0.8550 C   0  0  0  0  0  0  0  0  0  0  0  0
    3.7532    2.3711   -1.7487 C   0  0  0  0  0  0  0  0  0  0  0  0
    2.3135    2.2552   -1.4888 N   0  0  0  0  0  0  0  0  0  0  0  0
    1.6125    3.5387   -1.5925 C   0  0  0  0  0  0  0  0  0  0  0  0
    2.3002    4.5809   -0.6950 C   0  0  0  0  0  0  0  0  0  0  0  0
    3.6944    4.7068   -1.0204 O   0  0  0  0  0  0  0  0  0  0  0  0
   -1.8648   -0.2821   -3.5509 N   0  0  0  0  0  0  0  0  0  0  0  0
   -1.4374    0.7140   -2.6605 C   0  0  0  0  0  0  0  0  0  0  0  0
   -0.4099    0.1979   -1.8729 C   0  0  0  0  0  0  0  0  0  0  0  0
   -0.2697   -1.1800   -2.2202 C   0  0  0  0  0  0  0  0  0  0  0  0
    0.5662   -2.2202   -1.7506 C   0  0  0  0  0  0  0  0  0  0  0  0
    0.3662   -3.5446   -2.1541 C   0  0  0  0  0  0  0  0  0  0  0  0
   -0.6709   -3.8416   -3.0247 C   0  0  0  0  0  0  0  0  0  0  0  0
   -1.4965   -2.8280   -3.5241 C   0  0  0  0  0  0  0  0  0  0  0  0
   -1.2576   -1.4845   -3.1569 C   0  0  0  0  0  0  0  0  0  0  0  0
   -1.9775    2.1076   -2.6325 C   0  0  0  0  0  0  0  0  0  0  0  0
    1.2307   -4.4447   -1.5940 O   0  0  0  0  0  0  0  0  0  0  0  0
    0.9758   -5.8241   -1.8224 C   0  0  0  0  0  0  0  0  0  0  0  0
   -2.7677   -0.1300   -4.6470 C   0  0  0  0  0  0  0  0  0  0  0  0
   -2.8406   -1.0372   -5.8221 C   0  0  0  0  0  0  0  0  0  0  0  0
   -4.0895   -1.3451   -6.3776 C   0  0  0  0  0  0  0  0  0  0  0  0
   -4.1755   -2.2481   -7.4389 C   0  0  0  0  0  0  0  0  0  0  0  0
   -3.0179   -2.8356   -7.9498 C   0  0  0  0  0  0  0  0  0  0  0  0
   -1.7697   -2.4903   -7.4341 C   0  0  0  0  0  0  0  0  0  0  0  0
   -1.6748   -1.5743   -6.3890 C   0  0  0  0  0  0  0  0  0  0  0  0
   -3.5434    0.8241   -4.6421 O   0  0  0  0  0  0  0  0  0  0  0  0
    2.5781    0.1302   -0.7153 O   0  0  0  0  0  0  0  0  0  0  0  0
    0.2084    0.2948    0.1574 H   0  0  0  0  0  0  0  0  0  0  0  0
   -0.1554    1.8461   -0.4958 H   0  0  0  0  0  0  0  0  0  0  0  0
    4.3355    3.1619    0.2022 H   0  0  0  0  0  0  0  0  0  0  0  0
    5.4238    3.6009   -1.1254 H   0  0  0  0  0  0  0  0  0  0  0  0
    3.8553    2.6582   -2.8018 H   0  0  0  0  0  0  0  0  0  0  0  0
    4.2744    1.4197   -1.6088 H   0  0  0  0  0  0  0  0  0  0  0  0
    1.6850    3.8503   -2.6407 H   0  0  0  0  0  0  0  0  0  0  0  0
    0.5576    3.4676   -1.3352 H   0  0  0  0  0  0  0  0  0  0  0  0
    1.8377    5.5627   -0.8355 H   0  0  0  0  0  0  0  0  0  0  0  0
    2.2084    4.3131    0.3645 H   0  0  0  0  0  0  0  0  0  0  0  0
    1.3640   -2.0037   -1.0435 H   0  0  0  0  0  0  0  0  0  0  0  0
   -0.8731   -4.8574   -3.3451 H   0  0  0  0  0  0  0  0  0  0  0  0
   -2.3230   -3.1024   -4.1755 H   0  0  0  0  0  0  0  0  0  0  0  0
   -2.0192    2.4728   -1.6007 H   0  0  0  0  0  0  0  0  0  0  0  0
   -1.3180    2.7729   -3.1991 H   0  0  0  0  0  0  0  0  0  0  0  0
   -2.9922    2.2116   -3.0126 H   0  0  0  0  0  0  0  0  0  0  0  0
   -0.0564   -6.0942   -1.5756 H   0  0  0  0  0  0  0  0  0  0  0  0
    1.2197   -6.0958   -2.8542 H   0  0  0  0  0  0  0  0  0  0  0  0
    1.6300   -6.3979   -1.1583 H   0  0  0  0  0  0  0  0  0  0  0  0
   -4.9962   -0.8923   -5.9804 H   0  0  0  0  0  0  0  0  0  0  0  0
   -5.1448   -2.4996   -7.8626 H   0  0  0  0  0  0  0  0  0  0  0  0
   -3.0873   -3.5590   -8.7586 H   0  0  0  0  0  0  0  0  0  0  0  0
   -0.8672   -2.9411   -7.8385 H   0  0  0  0  0  0  0  0  0  0  0  0
   -0.6949   -1.3074   -6.0032 H   0  0  0  0  0  0  0  0  0  0  0  0
  1  2  1  0  0  0  0
  1  5  1  0  0  0  0
  1 29  2  0  0  0  0
  2 11  1  0  0  0  0
  2 30  1  0  0  0  0
  2 31  1  0  0  0  0
  3  4  1  0  0  0  0
  3  8  1  0  0  0  0
  3 32  1  0  0  0  0
  3 33  1  0  0  0  0
  4  5  1  0  0  0  0
  4 34  1  0  0  0  0
  4 35  1  0  0  0  0
  5  6  1  0  0  0  0
  6  7  1  0  0  0  0
  6 36  1  0  0  0  0
  6 37  1  0  0  0  0
  7  8  1  0  0  0  0
  7 38  1  0  0  0  0
  7 39  1  0  0  0  0
  9 10  1  0  0  0  0
  9 17  1  0  0  0  0
  9 21  1  0  0  0  0
 10 11  2  0  0  0  0
 10 18  1  0  0  0  0
 11 12  1  0  0  0  0
 12 13  2  0  0  0  0
 12 17  1  0  0  0  0
 13 14  1  0  0  0  0
 13 40  1  0  0  0  0
 14 15  2  0  0  0  0
 14 19  1  0  0  0  0
 15 16  1  0  0  0  0
 15 41  1  0  0  0  0
 16 17  2  0  0  0  0
 16 42  1  0  0  0  0
 18 43  1  0  0  0  0
 18 44  1  0  0  0  0
 18 45  1  0  0  0  0
 19 20  1  0  0  0  0
 20 46  1  0  0  0  0
 20 47  1  0  0  0  0
 20 48  1  0  0  0  0
 21 22  1  0  0  0  0
 21 28  2  0  0  0  0
 22 23  2  0  0  0  0
 22 27  1  0  0  0  0
 23 24  1  0  0  0  0
 23 49  1  0  0  0  0
 24 25  2  0  0  0  0
 24 50  1  0  0  0  0
 25 26  1  0  0  0  0
 25 51  1  0  0  0  0
 26 27  2  0  0  0  0
 26 52  1  0  0  0  0
 27 53  1  0  0  0  0
M  END
>  <Mol_ID>
1017

>  <Formula>
C23H23ClN2O4

>  <MolWeight>
426.89272

>  <Cat>
S2854

>  <Name>
BML-190

>  <Synonyms>
IMMA

>  <Target>
Cannabinoid Receptor

>  <Form>
free base

>  <CAS>
2854-32-2

>  <URL>
http://selleckchem.com/products/bml-190.html

$$$$
