BMS817378.cdx
 OpenBabel08302521353D

 48 51  0  0  0  0  0  0  0  0999 V2000
   -0.5630    0.6651    2.5939 N   0  0  0  0  0  0  0  0  0  0  0  0
    0.2921   -0.2525    2.1191 C   0  0  0  0  0  0  0  0  0  0  0  0
   -0.0972   -1.2499    1.2410 C   0  0  0  0  0  0  0  0  0  0  0  0
   -1.4411   -1.3535    0.8841 C   0  0  0  0  0  0  0  0  0  0  0  0
   -2.3405   -0.4126    1.3600 C   0  0  0  0  0  0  0  0  0  0  0  0
   -1.8565    0.5683    2.2047 C   0  0  0  0  0  0  0  0  0  0  0  0
    1.5857   -0.2503    2.6327 N   0  0  0  0  0  0  0  0  0  0  0  0
   -1.9637   -2.3314    0.0650 O   0  0  0  0  0  0  0  0  0  0  0  0
   -1.4019   -3.5896    0.0814 C   0  0  0  0  0  0  0  0  0  0  0  0
   -1.4748   -4.3229   -1.0963 C   0  0  0  0  0  0  0  0  0  0  0  0
   -0.9050   -5.5967   -1.1511 C   0  0  0  0  0  0  0  0  0  0  0  0
   -0.2504   -6.1584   -0.0431 C   0  0  0  0  0  0  0  0  0  0  0  0
   -0.2128   -5.4257    1.1438 C   0  0  0  0  0  0  0  0  0  0  0  0
   -0.8082   -4.1680    1.2041 C   0  0  0  0  0  0  0  0  0  0  0  0
   -0.7635   -3.5078    2.3664 F   0  0  0  0  0  0  0  0  0  0  0  0
    0.3688   -7.4334   -0.0753 N   0  0  0  0  0  0  0  0  0  0  0  0
    0.4265   -8.2715   -1.1631 C   0  0  0  0  0  0  0  0  0  0  0  0
    1.1569   -9.5487   -0.9945 C   0  0  0  0  0  0  0  0  0  0  0  0
   -0.0887   -8.0400   -2.2704 O   0  0  0  0  0  0  0  0  0  0  0  0
    1.2530  -10.3447   -2.0750 C   0  0  0  0  0  0  0  0  0  0  0  0
    1.8508  -11.5754   -2.0635 N   0  0  0  0  0  0  0  0  0  0  0  0
    2.3048  -12.1195   -0.8928 C   0  0  0  0  0  0  0  0  0  0  0  0
    2.3034  -11.4584    0.2790 C   0  0  0  0  0  0  0  0  0  0  0  0
    1.7621  -10.0482    0.2723 C   0  0  0  0  0  0  0  0  0  0  0  0
    1.7975   -9.3311    1.2716 O   0  0  0  0  0  0  0  0  0  0  0  0
    2.7970  -12.0976    1.5021 C   0  0  0  0  0  0  0  0  0  0  0  0
    4.1501  -11.9992    1.8575 C   0  0  0  0  0  0  0  0  0  0  0  0
    4.6200  -12.6230    3.0160 C   0  0  0  0  0  0  0  0  0  0  0  0
    3.7395  -13.3478    3.8110 C   0  0  0  0  0  0  0  0  0  0  0  0
    2.3962  -13.4598    3.4723 C   0  0  0  0  0  0  0  0  0  0  0  0
    1.9234  -12.8363    2.3157 C   0  0  0  0  0  0  0  0  0  0  0  0
    4.1937  -13.9549    4.9152 F   0  0  0  0  0  0  0  0  0  0  0  0
    0.6449   -1.9675    0.9082 H   0  0  0  0  0  0  0  0  0  0  0  0
   -3.3889   -0.4557    1.0973 H   0  0  0  0  0  0  0  0  0  0  0  0
   -2.5206    1.3202    2.6198 H   0  0  0  0  0  0  0  0  0  0  0  0
    1.7265    0.6127    3.1485 H   0  0  0  0  0  0  0  0  0  0  0  0
    2.3005   -0.4457    1.9470 H   0  0  0  0  0  0  0  0  0  0  0  0
   -1.9685   -3.9214   -1.9781 H   0  0  0  0  0  0  0  0  0  0  0  0
   -0.9934   -6.1254   -2.0938 H   0  0  0  0  0  0  0  0  0  0  0  0
    0.2722   -5.8013    2.0385 H   0  0  0  0  0  0  0  0  0  0  0  0
    0.8374   -7.7487    0.7790 H   0  0  0  0  0  0  0  0  0  0  0  0
    0.8319  -10.0701   -3.0409 H   0  0  0  0  0  0  0  0  0  0  0  0
    1.7578  -12.1679   -2.8859 H   0  0  0  0  0  0  0  0  0  0  0  0
    2.6612  -13.1414   -0.9923 H   0  0  0  0  0  0  0  0  0  0  0  0
    4.8458  -11.4349    1.2400 H   0  0  0  0  0  0  0  0  0  0  0  0
    5.6648  -12.5501    3.3012 H   0  0  0  0  0  0  0  0  0  0  0  0
    1.7282  -14.0340    4.1070 H   0  0  0  0  0  0  0  0  0  0  0  0
    0.8711  -12.9309    2.0565 H   0  0  0  0  0  0  0  0  0  0  0  0
  1  2  2  0  0  0  0
  2  3  1  0  0  0  0
  2  7  1  0  0  0  0
  3  4  2  0  0  0  0
  3 33  1  0  0  0  0
  4  5  1  0  0  0  0
  4  8  1  0  0  0  0
  5  6  2  0  0  0  0
  5 34  1  0  0  0  0
  6  1  1  0  0  0  0
  6 35  1  0  0  0  0
  7 36  1  0  0  0  0
  7 37  1  0  0  0  0
  8  9  1  0  0  0  0
  9 10  2  0  0  0  0
 10 11  1  0  0  0  0
 10 38  1  0  0  0  0
 11 12  2  0  0  0  0
 11 39  1  0  0  0  0
 12 13  1  0  0  0  0
 12 16  1  0  0  0  0
 13 14  2  0  0  0  0
 13 40  1  0  0  0  0
 14  9  1  0  0  0  0
 14 15  1  0  0  0  0
 16 17  1  0  0  0  0
 16 41  1  0  0  0  0
 17 18  1  0  0  0  0
 17 19  2  0  0  0  0
 18 20  2  0  0  0  0
 20 21  1  0  0  0  0
 20 42  1  0  0  0  0
 21 22  1  0  0  0  0
 21 43  1  0  0  0  0
 22 23  2  0  0  0  0
 22 44  1  0  0  0  0
 23 24  1  0  0  0  0
 23 26  1  0  0  0  0
 24 18  1  0  0  0  0
 24 25  2  0  0  0  0
 26 27  2  0  0  0  0
 27 28  1  0  0  0  0
 27 45  1  0  0  0  0
 28 29  2  0  0  0  0
 28 46  1  0  0  0  0
 29 30  1  0  0  0  0
 29 32  1  0  0  0  0
 30 31  2  0  0  0  0
 30 47  1  0  0  0  0
 31 26  1  0  0  0  0
 31 48  1  0  0  0  0
M  END
>  <Mol_ID>
643

>  <Formula>
C23H15ClF2N4O3

>  <MolWeight>
468.8400064

>  <Cat>
S2201

>  <Name>
BMS-794833

>  <Synonyms>
N/A

>  <Target>
c-Met,RON,VEGFR

>  <Form>
free base

>  <CAS>
1174046-72-0

>  <URL>
http://selleckchem.com/products/BMS-794833.html

$$$$
