Br-Mmc
 OpenBabel08302521363D

 24 25  0  0  0  0  0  0  0  0999 V2000
    1.0381   -0.1150   -0.0598 C   0  0  0  0  0  0  0  0  0  0  0  0
    0.5046   -0.7588    1.6967 Br  0  0  0  0  0  0  0  0  0  0  0  0
    3.7463    5.7490    1.2816 O   0  0  0  0  0  0  0  0  0  0  0  0
    3.3186    7.0732    0.9808 C   0  0  0  0  0  0  0  0  0  0  0  0
   -2.2101    3.0952   -1.5763 O   0  0  0  0  0  0  0  0  0  0  0  0
    1.4018    2.4385    0.2012 C   0  0  0  0  0  0  0  0  0  0  0  0
    0.9543    3.7330   -0.0739 C   0  0  0  0  0  0  0  0  0  0  0  0
    0.5717    1.2995   -0.2262 C   0  0  0  0  0  0  0  0  0  0  0  0
    2.6273    2.3132    0.8626 C   0  0  0  0  0  0  0  0  0  0  0  0
    1.6900    4.8749    0.2586 C   0  0  0  0  0  0  0  0  0  0  0  0
   -0.2840    3.9675   -0.7042 O   0  0  0  0  0  0  0  0  0  0  0  0
   -0.5988    1.5640   -0.8276 C   0  0  0  0  0  0  0  0  0  0  0  0
    3.3736    3.4510    1.2070 C   0  0  0  0  0  0  0  0  0  0  0  0
    2.9150    4.7332    0.9010 C   0  0  0  0  0  0  0  0  0  0  0  0
   -1.1117    2.9212   -1.0639 C   0  0  0  0  0  0  0  0  0  0  0  0
    0.5700   -0.7908   -0.7837 H   0  0  0  0  0  0  0  0  0  0  0  0
    2.1204   -0.2367   -0.1503 H   0  0  0  0  0  0  0  0  0  0  0  0
    3.2158    7.2190   -0.0996 H   0  0  0  0  0  0  0  0  0  0  0  0
    2.3866    7.3138    1.5031 H   0  0  0  0  0  0  0  0  0  0  0  0
    4.0885    7.7628    1.3381 H   0  0  0  0  0  0  0  0  0  0  0  0
    3.0361    1.3447    1.1358 H   0  0  0  0  0  0  0  0  0  0  0  0
    1.2791    5.8458    0.0046 H   0  0  0  0  0  0  0  0  0  0  0  0
   -1.2586    0.7732   -1.1730 H   0  0  0  0  0  0  0  0  0  0  0  0
    4.3260    3.3311    1.7198 H   0  0  0  0  0  0  0  0  0  0  0  0
  1  2  1  0  0  0  0
  1  8  1  0  0  0  0
  1 16  1  0  0  0  0
  1 17  1  0  0  0  0
  3  4  1  0  0  0  0
  3 14  1  0  0  0  0
  4 18  1  0  0  0  0
  4 19  1  0  0  0  0
  4 20  1  0  0  0  0
  5 15  2  0  0  0  0
  6  7  2  0  0  0  0
  6  8  1  0  0  0  0
  6  9  1  0  0  0  0
  7 10  1  0  0  0  0
  7 11  1  0  0  0  0
  8 12  2  0  0  0  0
  9 13  2  0  0  0  0
  9 21  1  0  0  0  0
 10 14  2  0  0  0  0
 10 22  1  0  0  0  0
 11 15  1  0  0  0  0
 12 15  1  0  0  0  0
 12 23  1  0  0  0  0
 13 14  1  0  0  0  0
 13 24  1  0  0  0  0
M  END
>  <Mol_ID>
7316

>  <Formula>
C11H9BrO3

>  <MolWeight>
269.09136

>  <Cat>
E4352

>  <Name>
Br-Mmc

>  <Synonyms>
Br-Mmc

>  <Target>
Others

>  <Form>
free base

>  <CAS>
35231-44-8

>  <URL>
https://www.selleckchem.com/products/br-mmc.html

$$$$
