BRD0639
 OpenBabel08302521353D

 54 56  0  0  0  0  0  0  0  0999 V2000
   -0.9900   -1.2337   -0.0935 C   0  0  0  0  0  0  0  0  0  0  0  0
   -1.7842   -0.0921   -0.0373 C   0  0  0  0  0  0  0  0  0  0  0  0
   -1.1453    1.1441    0.1136 C   0  0  0  0  0  0  0  0  0  0  0  0
    0.2753    1.2476    0.1342 C   0  0  0  0  0  0  0  0  0  0  0  0
    1.0671    0.0870    0.0356 C   0  0  0  0  0  0  0  0  0  0  0  0
    0.4010   -1.1459   -0.0615 C   0  0  0  0  0  0  0  0  0  0  0  0
    2.5650   -0.0303    0.0513 C   0  0  0  0  0  0  0  0  0  0  0  0
    0.9240    2.9080    0.3854 S   0  0  0  0  0  0  0  0  0  0  0  0
   -3.2044   -0.1589   -0.1182 N   0  0  0  0  0  0  0  0  0  0  0  0
    0.4060    3.7831   -0.9607 N   0  0  0  0  0  0  0  0  0  0  0  0
    1.2278    3.8093   -2.1979 C   0  0  0  0  0  0  0  0  0  0  0  0
    1.4400    2.4471   -2.8555 C   0  0  0  0  0  0  0  0  0  0  0  0
    0.1671    1.7251   -3.2284 C   0  0  0  0  0  0  0  0  0  0  0  0
   -1.0169    2.3626   -3.0286 N   0  0  0  0  0  0  0  0  0  0  0  0
   -2.1470    1.6681   -3.2820 C   0  0  0  0  0  0  0  0  0  0  0  0
   -2.1640    0.3590   -3.7259 C   0  0  0  0  0  0  0  0  0  0  0  0
   -0.9456   -0.2726   -3.9460 C   0  0  0  0  0  0  0  0  0  0  0  0
    0.2377    0.4170   -3.7021 C   0  0  0  0  0  0  0  0  0  0  0  0
   -3.9051   -1.2643   -0.6007 C   0  0  0  0  0  0  0  0  0  0  0  0
   -5.4401   -1.1605   -0.5232 C   0  0  1  0  0  0  0  0  0  0  0  0
   -5.9304   -0.6226   -1.8035 N   0  0  0  0  0  0  0  0  0  0  0  0
   -6.1434    0.7423   -1.9323 C   0  0  0  0  0  0  0  0  0  0  0  0
   -6.6358    1.2048   -3.2508 C   0  0  0  0  0  0  0  0  0  0  0  0
   -6.7328    0.3634   -4.2801 C   0  0  0  0  0  0  0  0  0  0  0  0
   -6.3622   -1.0307   -4.0143 C   0  0  0  0  0  0  0  0  0  0  0  0
   -6.0018   -1.5033   -2.8689 N   0  0  0  0  0  0  0  0  0  0  0  0
   -5.9402    1.5632   -1.0410 O   0  0  0  0  0  0  0  0  0  0  0  0
   -6.0221   -2.5461   -0.2183 C   0  0  0  0  0  0  0  0  0  0  0  0
   -3.3771   -2.2419   -1.1359 O   0  0  0  0  0  0  0  0  0  0  0  0
    0.2050    3.4331    1.5235 O   0  0  0  0  0  0  0  0  0  0  0  0
    2.3727    2.9085    0.3591 O   0  0  0  0  0  0  0  0  0  0  0  0
   -1.4159   -2.2302   -0.1452 H   0  0  0  0  0  0  0  0  0  0  0  0
   -1.7433    2.0511    0.1899 H   0  0  0  0  0  0  0  0  0  0  0  0
    0.9689   -2.0760   -0.1114 H   0  0  0  0  0  0  0  0  0  0  0  0
    2.8833   -0.5657    0.9540 H   0  0  0  0  0  0  0  0  0  0  0  0
    2.8886   -0.6102   -0.8217 H   0  0  0  0  0  0  0  0  0  0  0  0
    3.1161    0.9009    0.0052 H   0  0  0  0  0  0  0  0  0  0  0  0
   -3.7269    0.6880    0.0702 H   0  0  0  0  0  0  0  0  0  0  0  0
   -0.5742    3.5888   -1.1980 H   0  0  0  0  0  0  0  0  0  0  0  0
    0.7136    4.4734   -2.9053 H   0  0  0  0  0  0  0  0  0  0  0  0
    2.1915    4.2840   -1.9809 H   0  0  0  0  0  0  0  0  0  0  0  0
    2.0351    2.5867   -3.7663 H   0  0  0  0  0  0  0  0  0  0  0  0
    2.0316    1.8079   -2.1917 H   0  0  0  0  0  0  0  0  0  0  0  0
   -3.0721    2.2042   -3.0886 H   0  0  0  0  0  0  0  0  0  0  0  0
   -3.0974   -0.1685   -3.8735 H   0  0  0  0  0  0  0  0  0  0  0  0
   -0.9208   -1.3068   -4.2788 H   0  0  0  0  0  0  0  0  0  0  0  0
    1.1937   -0.0752   -3.8453 H   0  0  0  0  0  0  0  0  0  0  0  0
   -5.7175   -0.4831    0.2908 H   0  0  0  0  0  0  0  0  0  0  0  0
   -6.8983    2.2534   -3.3330 H   0  0  0  0  0  0  0  0  0  0  0  0
   -7.0719    0.6444   -5.2649 H   0  0  0  0  0  0  0  0  0  0  0  0
   -6.4082   -1.7093   -4.8812 H   0  0  0  0  0  0  0  0  0  0  0  0
   -5.6487   -2.9176    0.7423 H   0  0  0  0  0  0  0  0  0  0  0  0
   -7.1155   -2.5158   -0.1778 H   0  0  0  0  0  0  0  0  0  0  0  0
   -5.7407   -3.2871   -0.9764 H   0  0  0  0  0  0  0  0  0  0  0  0
  1  2  2  0  0  0  0
  1 32  1  0  0  0  0
  2  3  1  0  0  0  0
  2  9  1  0  0  0  0
  3  4  2  0  0  0  0
  3 33  1  0  0  0  0
  4  5  1  0  0  0  0
  4  8  1  0  0  0  0
  5  6  2  0  0  0  0
  5  7  1  0  0  0  0
  6  1  1  0  0  0  0
  6 34  1  0  0  0  0
  7 35  1  0  0  0  0
  7 36  1  0  0  0  0
  7 37  1  0  0  0  0
  8 10  1  0  0  0  0
  8 30  2  0  0  0  0
  8 31  2  0  0  0  0
  9 19  1  0  0  0  0
  9 38  1  0  0  0  0
 10 11  1  0  0  0  0
 10 39  1  0  0  0  0
 11 12  1  0  0  0  0
 11 40  1  0  0  0  0
 11 41  1  0  0  0  0
 12 13  1  0  0  0  0
 12 42  1  0  0  0  0
 12 43  1  0  0  0  0
 13 14  2  0  0  0  0
 14 15  1  0  0  0  0
 15 16  2  0  0  0  0
 15 44  1  0  0  0  0
 16 17  1  0  0  0  0
 16 45  1  0  0  0  0
 17 18  2  0  0  0  0
 17 46  1  0  0  0  0
 18 13  1  0  0  0  0
 18 47  1  0  0  0  0
 19 20  1  0  0  0  0
 19 29  2  0  0  0  0
 20 21  1  0  0  0  0
 20 28  1  0  0  0  0
 20 48  1  1  0  0  0
 21 22  1  0  0  0  0
 22 23  1  0  0  0  0
 22 27  2  0  0  0  0
 23 24  2  0  0  0  0
 23 49  1  0  0  0  0
 24 25  1  0  0  0  0
 24 50  1  0  0  0  0
 25 26  2  0  0  0  0
 25 51  1  0  0  0  0
 26 21  1  0  0  0  0
 28 52  1  0  0  0  0
 28 53  1  0  0  0  0
 28 54  1  0  0  0  0
M  END
>  <Mol_ID>
6815

>  <Formula>
C21H22ClN5O4S

>  <MolWeight>
475.94848

>  <Cat>
E1007

>  <Name>
BRD0639

>  <Synonyms>
N/A

>  <Target>
PRMT

>  <Form>
Free base

>  <CAS>
2760881-74-9

>  <URL>
http://www.selleckchem.com/products/brd0639.html

$$$$
