BRD4770.cdx
 OpenBabel08302519583D

 54 57  0  0  0  0  0  0  0  0999 V2000
   -2.1728    0.6809   -0.0145 C   0  0  0  0  0  0  0  0  0  0  0  0
   -2.1808   -0.7189    0.0954 C   0  0  0  0  0  0  0  0  0  0  0  0
   -0.9704   -1.4161    0.2300 C   0  0  0  0  0  0  0  0  0  0  0  0
    0.2344   -0.6937    0.2092 C   0  0  0  0  0  0  0  0  0  0  0  0
    0.2164    0.6932    0.0707 C   0  0  0  0  0  0  0  0  0  0  0  0
   -0.9775    1.4180   -0.0212 C   0  0  0  0  0  0  0  0  0  0  0  0
    1.5184   -1.1679    0.2834 N   0  0  0  0  0  0  0  0  0  0  0  0
    2.2780   -0.1312    0.0047 C   0  0  0  0  0  0  0  0  0  0  0  0
    1.5533    1.0432    0.0434 N   0  0  0  0  0  0  0  0  0  0  0  0
   -3.4960   -1.4215    0.0407 C   0  0  0  0  0  0  0  0  0  0  0  0
   -3.3392   -2.7684    0.1043 O   0  0  0  0  0  0  0  0  0  0  0  0
   -4.5653   -3.5053    0.0334 C   0  0  0  0  0  0  0  0  0  0  0  0
   -4.5635   -0.8365   -0.0621 O   0  0  0  0  0  0  0  0  0  0  0  0
    3.6223   -0.2540   -0.2555 N   0  0  0  0  0  0  0  0  0  0  0  0
    4.1092    0.2084   -1.4706 C   0  0  0  0  0  0  0  0  0  0  0  0
    3.4854    0.8647   -2.2974 O   0  0  0  0  0  0  0  0  0  0  0  0
    5.5085   -0.2047   -1.7678 C   0  0  0  0  0  0  0  0  0  0  0  0
    2.1002    2.3864    0.0315 C   0  0  0  0  0  0  0  0  0  0  0  0
    1.7997    3.2556    1.2631 C   0  0  0  0  0  0  0  0  0  0  0  0
    2.3316    2.7168    2.6001 C   0  0  0  0  0  0  0  0  0  0  0  0
    1.9933    3.6946    3.7082 C   0  0  0  0  0  0  0  0  0  0  0  0
    0.7759    3.5892    4.3959 C   0  0  0  0  0  0  0  0  0  0  0  0
    0.3833    4.5783    5.3016 C   0  0  0  0  0  0  0  0  0  0  0  0
    1.2047    5.6790    5.5342 C   0  0  0  0  0  0  0  0  0  0  0  0
    2.4368    5.7727    4.8891 C   0  0  0  0  0  0  0  0  0  0  0  0
    2.8327    4.7840    3.9854 C   0  0  0  0  0  0  0  0  0  0  0  0
    5.8747   -0.5277   -3.0833 C   0  0  0  0  0  0  0  0  0  0  0  0
    7.1899   -0.9154   -3.3679 C   0  0  0  0  0  0  0  0  0  0  0  0
    8.1387   -0.9614   -2.3466 C   0  0  0  0  0  0  0  0  0  0  0  0
    7.7838   -0.6157   -1.0434 C   0  0  0  0  0  0  0  0  0  0  0  0
    6.4724   -0.2369   -0.7527 C   0  0  0  0  0  0  0  0  0  0  0  0
   -3.1174    1.2168   -0.1166 H   0  0  0  0  0  0  0  0  0  0  0  0
   -0.9333   -2.4962    0.3088 H   0  0  0  0  0  0  0  0  0  0  0  0
   -0.9931    2.4971   -0.1317 H   0  0  0  0  0  0  0  0  0  0  0  0
   -5.2383   -3.2149    0.8458 H   0  0  0  0  0  0  0  0  0  0  0  0
   -5.0440   -3.3581   -0.9390 H   0  0  0  0  0  0  0  0  0  0  0  0
   -4.3295   -4.5676    0.1454 H   0  0  0  0  0  0  0  0  0  0  0  0
    3.9979   -1.1494    0.0328 H   0  0  0  0  0  0  0  0  0  0  0  0
    3.1861    2.3276   -0.0837 H   0  0  0  0  0  0  0  0  0  0  0  0
    1.7043    2.8764   -0.8647 H   0  0  0  0  0  0  0  0  0  0  0  0
    2.2515    4.2403    1.0814 H   0  0  0  0  0  0  0  0  0  0  0  0
    0.7214    3.4312    1.3427 H   0  0  0  0  0  0  0  0  0  0  0  0
    1.8933    1.7384    2.8296 H   0  0  0  0  0  0  0  0  0  0  0  0
    3.4179    2.5700    2.5575 H   0  0  0  0  0  0  0  0  0  0  0  0
    0.1108    2.7486    4.2097 H   0  0  0  0  0  0  0  0  0  0  0  0
   -0.5742    4.4989    5.8101 H   0  0  0  0  0  0  0  0  0  0  0  0
    0.8829    6.4644    6.2132 H   0  0  0  0  0  0  0  0  0  0  0  0
    3.0797    6.6298    5.0761 H   0  0  0  0  0  0  0  0  0  0  0  0
    3.7891    4.8861    3.4781 H   0  0  0  0  0  0  0  0  0  0  0  0
    5.1381   -0.4906   -3.8838 H   0  0  0  0  0  0  0  0  0  0  0  0
    7.4691   -1.1743   -4.3854 H   0  0  0  0  0  0  0  0  0  0  0  0
    9.1634   -1.2497   -2.5718 H   0  0  0  0  0  0  0  0  0  0  0  0
    8.5322   -0.6313   -0.2540 H   0  0  0  0  0  0  0  0  0  0  0  0
    6.2168    0.0505    0.2650 H   0  0  0  0  0  0  0  0  0  0  0  0
  1  2  2  0  0  0  0
  1 32  1  0  0  0  0
  2  3  1  0  0  0  0
  2 10  1  0  0  0  0
  3  4  2  0  0  0  0
  3 33  1  0  0  0  0
  4  5  1  0  0  0  0
  4  7  1  0  0  0  0
  5  6  2  0  0  0  0
  6  1  1  0  0  0  0
  6 34  1  0  0  0  0
  7  8  2  0  0  0  0
  8  9  1  0  0  0  0
  8 14  1  0  0  0  0
  9  5  1  0  0  0  0
  9 18  1  0  0  0  0
 10 11  1  0  0  0  0
 10 13  2  0  0  0  0
 11 12  1  0  0  0  0
 12 35  1  0  0  0  0
 12 36  1  0  0  0  0
 12 37  1  0  0  0  0
 14 15  1  0  0  0  0
 14 38  1  0  0  0  0
 15 16  2  0  0  0  0
 15 17  1  0  0  0  0
 17 27  2  0  0  0  0
 18 19  1  0  0  0  0
 18 39  1  0  0  0  0
 18 40  1  0  0  0  0
 19 20  1  0  0  0  0
 19 41  1  0  0  0  0
 19 42  1  0  0  0  0
 20 21  1  0  0  0  0
 20 43  1  0  0  0  0
 20 44  1  0  0  0  0
 21 22  2  0  0  0  0
 22 23  1  0  0  0  0
 22 45  1  0  0  0  0
 23 24  2  0  0  0  0
 23 46  1  0  0  0  0
 24 25  1  0  0  0  0
 24 47  1  0  0  0  0
 25 26  2  0  0  0  0
 25 48  1  0  0  0  0
 26 21  1  0  0  0  0
 26 49  1  0  0  0  0
 27 28  1  0  0  0  0
 27 50  1  0  0  0  0
 28 29  2  0  0  0  0
 28 51  1  0  0  0  0
 29 30  1  0  0  0  0
 29 52  1  0  0  0  0
 30 31  2  0  0  0  0
 30 53  1  0  0  0  0
 31 17  1  0  0  0  0
 31 54  1  0  0  0  0
M  END
>  <Mol_ID>
2509

>  <Formula>
C25H23N3O3

>  <MolWeight>
413.46842

>  <Cat>
S7591

>  <Name>
BRD4770

>  <Synonyms>
N/A

>  <Target>
G9a/GLP,Histone Methyltransferase

>  <Form>
free base

>  <CAS>
1374601-40-7

>  <URL>
http://selleckchem.com/products/brd4770.html

$$$$
