Brepocitinib (PF-06700841)
 OpenBabel08302521223D

 49 53  0  0  0  0  0  0  0  0999 V2000
  -13.1092   -3.0606   -5.8817 C   0  0  0  0  0  0  0  0  0  0  0  0
  -13.7320   -3.4313   -7.0485 C   0  0  0  0  0  0  0  0  0  0  0  0
  -13.2471   -4.3759   -7.8692 N   0  0  0  0  0  0  0  0  0  0  0  0
  -12.1101   -4.9686   -7.4819 C   0  0  0  0  0  0  0  0  0  0  0  0
  -11.4736   -4.7046   -6.3344 N   0  0  0  0  0  0  0  0  0  0  0  0
  -11.9479   -3.7373   -5.5403 C   0  0  0  0  0  0  0  0  0  0  0  0
  -11.2076   -3.3741   -4.4087 N   0  0  0  0  0  0  0  0  0  0  0  0
  -10.2283   -4.3493   -3.8590 C   0  0  0  0  0  0  0  0  0  0  0  0
   -8.8062   -3.7673   -3.4615 C   0  0  3  0  0  0  0  0  0  0  0  0
   -8.4763   -2.5085   -4.1345 N   0  0  0  0  0  0  0  0  0  0  0  0
   -9.5366   -1.6204   -3.7203 C   0  0  3  0  0  0  0  0  0  0  0  0
  -10.9131   -1.9424   -4.3239 C   0  0  0  0  0  0  0  0  0  0  0  0
   -7.1777   -1.8891   -3.9169 C   0  0  0  0  0  0  0  0  0  0  0  0
   -6.8690   -0.7539   -4.8372 C   0  0  1  0  0  0  0  0  0  0  0  0
   -6.3712   -2.2344   -3.0436 O   0  0  0  0  0  0  0  0  0  0  0  0
   -6.6017    0.6490   -4.4363 C   0  0  0  0  0  0  0  0  0  0  0  0
   -5.4542   -0.1730   -4.8655 C   0  0  0  0  0  0  0  0  0  0  0  0
   -6.9841    1.7020   -5.2406 F   0  0  0  0  0  0  0  0  0  0  0  0
   -6.6442    1.1116   -3.1378 F   0  0  0  0  0  0  0  0  0  0  0  0
  -11.5350   -5.8405   -8.4110 N   0  0  0  0  0  0  0  0  0  0  0  0
  -10.2693   -6.2825   -8.4735 C   0  0  0  0  0  0  0  0  0  0  0  0
   -9.6928   -6.8883   -9.5624 C   0  0  0  0  0  0  0  0  0  0  0  0
   -8.3991   -7.1271   -9.2428 N   0  0  0  0  0  0  0  0  0  0  0  0
   -8.0936   -6.7672   -7.9837 N   0  0  0  0  0  0  0  0  0  0  0  0
   -9.2294   -6.2339   -7.5262 C   0  0  0  0  0  0  0  0  0  0  0  0
   -7.3819   -7.7300  -10.0623 C   0  0  0  0  0  0  0  0  0  0  0  0
   -9.5752   -1.8934   -2.1923 C   0  0  0  0  0  0  0  0  0  0  0  0
   -8.9317   -3.2848   -2.0088 C   0  0  0  0  0  0  0  0  0  0  0  0
  -13.5225   -2.2753   -5.2666 H   0  0  0  0  0  0  0  0  0  0  0  0
  -14.6476   -2.9490   -7.3797 H   0  0  0  0  0  0  0  0  0  0  0  0
  -10.7128   -4.7474   -2.9552 H   0  0  0  0  0  0  0  0  0  0  0  0
  -10.1008   -5.2366   -4.4873 H   0  0  0  0  0  0  0  0  0  0  0  0
   -8.0338   -4.5283   -3.5746 H   0  0  0  0  0  0  0  0  0  0  0  0
   -9.3006   -0.5841   -3.9820 H   0  0  0  0  0  0  0  0  0  0  0  0
  -10.9806   -1.4649   -5.3087 H   0  0  0  0  0  0  0  0  0  0  0  0
  -11.6839   -1.4713   -3.7018 H   0  0  0  0  0  0  0  0  0  0  0  0
   -7.3800   -0.8297   -5.7922 H   0  0  0  0  0  0  0  0  0  0  0  0
   -4.7444   -0.4249   -4.0855 H   0  0  0  0  0  0  0  0  0  0  0  0
   -5.0181    0.0323   -5.8336 H   0  0  0  0  0  0  0  0  0  0  0  0
  -12.1370   -5.8469   -9.2269 H   0  0  0  0  0  0  0  0  0  0  0  0
  -10.1060   -7.1523  -10.5448 H   0  0  0  0  0  0  0  0  0  0  0  0
   -9.2451   -5.8361   -6.5214 H   0  0  0  0  0  0  0  0  0  0  0  0
   -6.5016   -7.0706  -10.0595 H   0  0  0  0  0  0  0  0  0  0  0  0
   -7.1322   -8.6963   -9.6519 H   0  0  0  0  0  0  0  0  0  0  0  0
   -7.7579   -7.8442  -11.0872 H   0  0  0  0  0  0  0  0  0  0  0  0
  -10.5960   -1.9043   -1.8068 H   0  0  0  0  0  0  0  0  0  0  0  0
   -9.0072   -1.1427   -1.6539 H   0  0  0  0  0  0  0  0  0  0  0  0
   -9.5136   -3.9541   -1.3668 H   0  0  0  0  0  0  0  0  0  0  0  0
   -7.9464   -3.2010   -1.5373 H   0  0  0  0  0  0  0  0  0  0  0  0
  1  2  2  0  0  0  0
  1 29  1  0  0  0  0
  2  3  1  0  0  0  0
  2 30  1  0  0  0  0
  3  4  2  0  0  0  0
  4  5  1  0  0  0  0
  4 20  1  0  0  0  0
  5  6  2  0  0  0  0
  6  1  1  0  0  0  0
  6  7  1  0  0  0  0
  7  8  1  0  0  0  0
  8  9  1  0  0  0  0
  8 31  1  0  0  0  0
  8 32  1  0  0  0  0
  9 10  1  0  0  0  0
  9 28  1  0  0  0  0
  9 33  1  0  0  0  0
 10 11  1  0  0  0  0
 10 13  1  0  0  0  0
 11 12  1  0  0  0  0
 11 27  1  0  0  0  0
 11 34  1  0  0  0  0
 12  7  1  0  0  0  0
 12 35  1  0  0  0  0
 12 36  1  0  0  0  0
 13 15  2  0  0  0  0
 14 16  1  0  0  0  0
 14 37  1  6  0  0  0
 14 13  1  0  0  0  0
 16 17  1  0  0  0  0
 16 18  1  0  0  0  0
 16 19  1  0  0  0  0
 17 14  1  0  0  0  0
 17 38  1  0  0  0  0
 17 39  1  0  0  0  0
 20 21  1  0  0  0  0
 20 40  1  0  0  0  0
 21 22  2  0  0  0  0
 22 23  1  0  0  0  0
 22 41  1  0  0  0  0
 23 24  1  0  0  0  0
 23 26  1  0  0  0  0
 24 25  2  0  0  0  0
 25 21  1  0  0  0  0
 25 42  1  0  0  0  0
 26 43  1  0  0  0  0
 26 44  1  0  0  0  0
 26 45  1  0  0  0  0
 27 28  1  0  0  0  0
 27 46  1  0  0  0  0
 27 47  1  0  0  0  0
 28 48  1  0  0  0  0
 28 49  1  0  0  0  0
M  END
>  <Mol_ID>
4670

>  <Formula>
C18H21F2N7O

>  <MolWeight>
389.4024464

>  <Cat>
S8804

>  <Name>
Brepocitinib (PF-06700841)

>  <Synonyms>
PF-841

>  <Target>
JAK

>  <Form>
Free Base

>  <CAS>
1883299-62-4

>  <URL>
http://www.selleck.cn/products/pf-06700841.html

$$$$
