Brinzolamide.cdx
 OpenBabel08302521583D

 44 45  0  0  0  0  0  0  0  0999 V2000
   -1.1538    1.5186   -0.8090 S   0  0  0  0  0  0  0  0  0  0  0  0
   -2.2214    0.5372    0.0278 N   0  0  0  0  0  0  0  0  0  0  0  0
   -2.2251   -0.9005   -0.3327 C   0  0  0  0  0  0  0  0  0  0  0  0
   -0.8410   -1.6469   -0.1324 C   0  0  1  0  0  0  0  0  0  0  0  0
    0.3922   -0.8043   -0.4770 C   0  0  0  0  0  0  0  0  0  0  0  0
    0.3239    0.5650   -0.6790 C   0  0  0  0  0  0  0  0  0  0  0  0
    1.7603   -1.2308   -0.6077 C   0  0  0  0  0  0  0  0  0  0  0  0
    2.6406   -0.1590   -0.5360 C   0  0  0  0  0  0  0  0  0  0  0  0
    1.8222    1.3292   -0.7536 S   0  0  0  0  0  0  0  0  0  0  0  0
    4.3791   -0.0506   -0.2045 S   0  0  0  0  0  0  0  0  0  0  0  0
    4.5042    0.7222    1.0045 O   0  0  0  0  0  0  0  0  0  0  0  0
    4.8802   -1.4010   -0.3083 O   0  0  0  0  0  0  0  0  0  0  0  0
    5.1164    0.8538   -1.4152 N   0  0  0  0  0  0  0  0  0  0  0  0
   -1.5007    1.4441   -2.2048 O   0  0  0  0  0  0  0  0  0  0  0  0
   -0.9441    2.7615   -0.1043 O   0  0  0  0  0  0  0  0  0  0  0  0
   -2.9588    1.0131    1.1952 C   0  0  0  0  0  0  0  0  0  0  0  0
   -4.0505    2.0005    0.7739 C   0  0  0  0  0  0  0  0  0  0  0  0
   -5.0691    1.4523   -0.2250 C   0  0  0  0  0  0  0  0  0  0  0  0
   -5.7151    0.2905    0.2948 O   0  0  0  0  0  0  0  0  0  0  0  0
   -6.7072   -0.1990   -0.6041 C   0  0  0  0  0  0  0  0  0  0  0  0
   -0.6345   -2.0831    1.2617 N   0  0  0  0  0  0  0  0  0  0  0  0
   -1.6255   -3.0278    1.7849 C   0  0  0  0  0  0  0  0  0  0  0  0
   -1.7474   -4.3275    0.9993 C   0  0  0  0  0  0  0  0  0  0  0  0
   -3.0309   -1.4105    0.2032 H   0  0  0  0  0  0  0  0  0  0  0  0
   -2.5132   -0.9725   -1.3875 H   0  0  0  0  0  0  0  0  0  0  0  0
   -0.8275   -2.5217   -0.7987 H   0  0  0  0  0  0  0  0  0  0  0  0
    2.1032   -2.2610   -0.5811 H   0  0  0  0  0  0  0  0  0  0  0  0
    4.7533    1.8074   -1.4143 H   0  0  0  0  0  0  0  0  0  0  0  0
    6.1250    0.8506   -1.2487 H   0  0  0  0  0  0  0  0  0  0  0  0
   -3.3904    0.1814    1.7617 H   0  0  0  0  0  0  0  0  0  0  0  0
   -2.2673    1.5120    1.8890 H   0  0  0  0  0  0  0  0  0  0  0  0
   -4.5773    2.3258    1.6785 H   0  0  0  0  0  0  0  0  0  0  0  0
   -3.5923    2.8943    0.3359 H   0  0  0  0  0  0  0  0  0  0  0  0
   -5.8216    2.2276   -0.4134 H   0  0  0  0  0  0  0  0  0  0  0  0
   -4.5860    1.2097   -1.1786 H   0  0  0  0  0  0  0  0  0  0  0  0
   -7.4983    0.5438   -0.7511 H   0  0  0  0  0  0  0  0  0  0  0  0
   -6.2607   -0.4656   -1.5674 H   0  0  0  0  0  0  0  0  0  0  0  0
   -7.1534   -1.0974   -0.1688 H   0  0  0  0  0  0  0  0  0  0  0  0
    0.2912   -2.5015    1.3522 H   0  0  0  0  0  0  0  0  0  0  0  0
   -1.3308   -3.2753    2.8113 H   0  0  0  0  0  0  0  0  0  0  0  0
   -2.6090   -2.5576    1.8804 H   0  0  0  0  0  0  0  0  0  0  0  0
   -0.7740   -4.8146    0.8842 H   0  0  0  0  0  0  0  0  0  0  0  0
   -2.4099   -5.0215    1.5275 H   0  0  0  0  0  0  0  0  0  0  0  0
   -2.1757   -4.1641    0.0052 H   0  0  0  0  0  0  0  0  0  0  0  0
  1  2  1  0  0  0  0
  1  6  1  0  0  0  0
  1 14  2  0  0  0  0
  1 15  2  0  0  0  0
  2  3  1  0  0  0  0
  2 16  1  0  0  0  0
  3  4  1  0  0  0  0
  3 24  1  0  0  0  0
  3 25  1  0  0  0  0
  4  5  1  0  0  0  0
  4 21  1  0  0  0  0
  4 26  1  6  0  0  0
  5  6  2  0  0  0  0
  5  7  1  0  0  0  0
  6  9  1  0  0  0  0
  7  8  2  0  0  0  0
  7 27  1  0  0  0  0
  8  9  1  0  0  0  0
  8 10  1  0  0  0  0
 10 11  2  0  0  0  0
 10 12  2  0  0  0  0
 10 13  1  0  0  0  0
 13 28  1  0  0  0  0
 13 29  1  0  0  0  0
 16 17  1  0  0  0  0
 16 30  1  0  0  0  0
 16 31  1  0  0  0  0
 17 18  1  0  0  0  0
 17 32  1  0  0  0  0
 17 33  1  0  0  0  0
 18 19  1  0  0  0  0
 18 34  1  0  0  0  0
 18 35  1  0  0  0  0
 19 20  1  0  0  0  0
 20 36  1  0  0  0  0
 20 37  1  0  0  0  0
 20 38  1  0  0  0  0
 21 22  1  0  0  0  0
 21 39  1  0  0  0  0
 22 23  1  0  0  0  0
 22 40  1  0  0  0  0
 22 41  1  0  0  0  0
 23 42  1  0  0  0  0
 23 43  1  0  0  0  0
 23 44  1  0  0  0  0
M  END
>  <Mol_ID>
993

>  <Formula>
C12H21N3O5S3

>  <MolWeight>
383.50724

>  <Cat>
S3178

>  <Name>
Brinzolamide

>  <Synonyms>
AL-4862

>  <Target>
Carbonic Anhydrase

>  <Form>
free base

>  <CAS>
138890-62-7

>  <URL>
http://selleckchem.com/products/brinzolamide.html

$$$$
