Brivanib Alaninate (BMS-582664)
 OpenBabel08302521363D

 56 59  0  0  0  0  0  0  0  0999 V2000
    0.0726    0.1814    1.9894 C   0  0  0  0  0  0  0  0  0  0  0  0
    0.3514   -1.1822    1.8813 C   0  0  0  0  0  0  0  0  0  0  0  0
    1.5432   -1.5715    1.2368 C   0  0  0  0  0  0  0  0  0  0  0  0
    2.3867   -0.5885    0.7014 C   0  0  0  0  0  0  0  0  0  0  0  0
    2.0806    0.7654    0.8205 C   0  0  0  0  0  0  0  0  0  0  0  0
    0.9259    1.1743    1.4918 C   0  0  0  0  0  0  0  0  0  0  0  0
    1.8347   -2.8723    1.0789 F   0  0  0  0  0  0  0  0  0  0  0  0
   -1.1471    0.3011    2.6143 N   0  0  0  0  0  0  0  0  0  0  0  0
   -1.6984   -0.9373    2.8304 C   0  0  0  0  0  0  0  0  0  0  0  0
   -0.7560   -1.8749    2.4539 C   0  0  0  0  0  0  0  0  0  0  0  0
   -3.0816   -1.0966    3.3456 C   0  0  0  0  0  0  0  0  0  0  0  0
    3.4506   -1.0174   -0.1274 O   0  0  0  0  0  0  0  0  0  0  0  0
    4.6712   -0.3626   -0.1583 C   0  0  0  0  0  0  0  0  0  0  0  0
    5.1097    0.4180    0.7717 N   0  0  0  0  0  0  0  0  0  0  0  0
    6.3718    0.9301    0.6044 C   0  0  0  0  0  0  0  0  0  0  0  0
    7.1853    0.6945   -0.3775 N   0  0  0  0  0  0  0  0  0  0  0  0
    6.6965   -0.1314   -1.3190 N   0  0  0  0  0  0  0  0  0  0  0  0
    5.4460   -0.6710   -1.3092 C   0  0  0  0  0  0  0  0  0  0  0  0
    7.3763   -0.5704   -2.4160 C   0  0  0  0  0  0  0  0  0  0  0  0
    6.5582   -1.4470   -3.0931 C   0  0  0  0  0  0  0  0  0  0  0  0
    5.2587   -1.3701   -2.4975 C   0  0  0  0  0  0  0  0  0  0  0  0
    3.9871   -1.9308   -3.0312 C   0  0  0  0  0  0  0  0  0  0  0  0
    6.9221   -2.2134   -4.1560 O   0  0  0  0  0  0  0  0  0  0  0  0
    8.3265   -2.5642   -4.1459 C   0  0  0  0  0  0  0  0  0  0  0  0
    8.5563   -3.9496   -4.7760 C   0  0  1  0  0  0  0  0  0  0  0  0
    8.3892   -4.0014   -6.2917 C   0  0  0  0  0  0  0  0  0  0  0  0
    9.8116   -4.5751   -4.3849 O   0  0  0  0  0  0  0  0  0  0  0  0
   11.0108   -3.9400   -4.5462 C   0  0  0  0  0  0  0  0  0  0  0  0
   12.1954   -4.8585   -4.1211 C   0  0  1  0  0  0  0  0  0  0  0  0
   11.1443   -2.8251   -5.0448 O   0  0  0  0  0  0  0  0  0  0  0  0
   13.3275   -4.0616   -3.6083 N   0  0  0  0  0  0  0  0  0  0  0  0
   11.8164   -5.8767   -3.0582 C   0  0  0  0  0  0  0  0  0  0  0  0
    2.7175    1.5196    0.3679 H   0  0  0  0  0  0  0  0  0  0  0  0
    0.6804    2.2278    1.5768 H   0  0  0  0  0  0  0  0  0  0  0  0
   -1.6012    1.1823    2.8113 H   0  0  0  0  0  0  0  0  0  0  0  0
   -0.8754   -2.9499    2.5135 H   0  0  0  0  0  0  0  0  0  0  0  0
   -3.6951   -1.6288    2.6107 H   0  0  0  0  0  0  0  0  0  0  0  0
   -3.0889   -1.6642    4.2800 H   0  0  0  0  0  0  0  0  0  0  0  0
   -3.5550   -0.1263    3.5308 H   0  0  0  0  0  0  0  0  0  0  0  0
    6.7244    1.6039    1.4041 H   0  0  0  0  0  0  0  0  0  0  0  0
    8.3948   -0.2533   -2.5839 H   0  0  0  0  0  0  0  0  0  0  0  0
    3.5444   -1.2164   -3.7366 H   0  0  0  0  0  0  0  0  0  0  0  0
    4.1462   -2.8760   -3.5553 H   0  0  0  0  0  0  0  0  0  0  0  0
    3.2444   -2.1076   -2.2496 H   0  0  0  0  0  0  0  0  0  0  0  0
    8.8788   -1.7838   -4.6802 H   0  0  0  0  0  0  0  0  0  0  0  0
    8.7103   -2.6218   -3.1188 H   0  0  0  0  0  0  0  0  0  0  0  0
    7.7868   -4.6108   -4.3611 H   0  0  0  0  0  0  0  0  0  0  0  0
    9.2533   -3.5845   -6.8174 H   0  0  0  0  0  0  0  0  0  0  0  0
    8.3107   -5.0474   -6.6130 H   0  0  0  0  0  0  0  0  0  0  0  0
    7.4860   -3.4793   -6.6196 H   0  0  0  0  0  0  0  0  0  0  0  0
   12.5161   -5.3810   -5.0309 H   0  0  0  0  0  0  0  0  0  0  0  0
   14.1143   -4.6753   -3.4225 H   0  0  0  0  0  0  0  0  0  0  0  0
   13.6293   -3.4040   -4.3340 H   0  0  0  0  0  0  0  0  0  0  0  0
   10.9846   -6.5087   -3.3870 H   0  0  0  0  0  0  0  0  0  0  0  0
   12.6586   -6.5410   -2.8370 H   0  0  0  0  0  0  0  0  0  0  0  0
   11.5130   -5.3872   -2.1258 H   0  0  0  0  0  0  0  0  0  0  0  0
  1  2  1  0  0  0  0
  1  8  1  0  0  0  0
  2  3  2  0  0  0  0
  3  4  1  0  0  0  0
  3  7  1  0  0  0  0
  4  5  2  0  0  0  0
  4 12  1  0  0  0  0
  5  6  1  0  0  0  0
  5 33  1  0  0  0  0
  6  1  2  0  0  0  0
  6 34  1  0  0  0  0
  8  9  1  0  0  0  0
  8 35  1  0  0  0  0
  9 10  2  0  0  0  0
  9 11  1  0  0  0  0
 10  2  1  0  0  0  0
 10 36  1  0  0  0  0
 11 37  1  0  0  0  0
 11 38  1  0  0  0  0
 11 39  1  0  0  0  0
 12 13  1  0  0  0  0
 13 14  2  0  0  0  0
 14 15  1  0  0  0  0
 15 16  2  0  0  0  0
 15 40  1  0  0  0  0
 16 17  1  0  0  0  0
 17 18  1  0  0  0  0
 17 19  1  0  0  0  0
 18 13  1  0  0  0  0
 19 20  2  0  0  0  0
 19 41  1  0  0  0  0
 20 21  1  0  0  0  0
 20 23  1  0  0  0  0
 21 18  2  0  0  0  0
 21 22  1  0  0  0  0
 22 42  1  0  0  0  0
 22 43  1  0  0  0  0
 22 44  1  0  0  0  0
 23 24  1  0  0  0  0
 24 25  1  0  0  0  0
 24 45  1  0  0  0  0
 24 46  1  0  0  0  0
 25 26  1  0  0  0  0
 25 27  1  0  0  0  0
 25 47  1  1  0  0  0
 26 48  1  0  0  0  0
 26 49  1  0  0  0  0
 26 50  1  0  0  0  0
 27 28  1  0  0  0  0
 28 29  1  0  0  0  0
 28 30  2  0  0  0  0
 29 31  1  0  0  0  0
 29 32  1  0  0  0  0
 29 51  1  6  0  0  0
 31 52  1  0  0  0  0
 31 53  1  0  0  0  0
 32 54  1  0  0  0  0
 32 55  1  0  0  0  0
 32 56  1  0  0  0  0
M  END
>  <Mol_ID>
82

>  <Formula>
C22H24FN5O4

>  <MolWeight>
441.4554632

>  <Cat>
S1138

>  <Name>
Brivanib Alaninate (BMS-582664)

>  <Synonyms>
N/A

>  <Target>
FGFR,VEGFR

>  <Form>
Alaninate

>  <CAS>
649735-63-7

>  <URL>
http://selleckchem.com/products/Brivanib-alaninate.html

$$$$
