BRL-50481
 OpenBabel08302520143D

 28 28  0  0  0  0  0  0  0  0999 V2000
    0.3526    1.2363    0.0323 C   0  0  0  0  0  0  0  0  0  0  0  0
    1.1416    2.8527    0.0995 S   0  0  0  0  0  0  0  0  0  0  0  0
   -1.0574    1.2568    0.0356 C   0  0  0  0  0  0  0  0  0  0  0  0
    1.0435    0.0073    0.0065 C   0  0  0  0  0  0  0  0  0  0  0  0
    1.3533    3.2338   -1.5475 N   0  0  0  0  0  0  0  0  0  0  0  0
    0.1629    3.7759    0.6410 O   0  0  0  0  0  0  0  0  0  0  0  0
    2.4353    2.7179    0.7304 O   0  0  0  0  0  0  0  0  0  0  0  0
   -1.7801    0.0615   -0.0014 C   0  0  0  0  0  0  0  0  0  0  0  0
    0.2820   -1.1811   -0.0203 C   0  0  0  0  0  0  0  0  0  0  0  0
    2.5352   -0.1891   -0.0071 C   0  0  0  0  0  0  0  0  0  0  0  0
    2.4075    2.5011   -2.2634 C   0  0  0  0  0  0  0  0  0  0  0  0
    0.1271    3.4146   -2.3482 C   0  0  0  0  0  0  0  0  0  0  0  0
   -1.1143   -1.1625   -0.0261 C   0  0  0  0  0  0  0  0  0  0  0  0
   -3.2478    0.0972   -0.0253 N   0  3  0  0  0  0  0  0  0  0  0  0
   -3.7972    1.2051   -0.0558 O   0  0  0  0  0  0  0  0  0  0  0  0
   -3.8487   -0.9879   -0.0307 O   0  5  0  0  0  0  0  0  0  0  0  0
   -1.5855    2.2103    0.0562 H   0  0  0  0  0  0  0  0  0  0  0  0
    0.7878   -2.1482   -0.0363 H   0  0  0  0  0  0  0  0  0  0  0  0
    2.8428   -0.7499    0.8822 H   0  0  0  0  0  0  0  0  0  0  0  0
    2.8172   -0.7667   -0.8961 H   0  0  0  0  0  0  0  0  0  0  0  0
    3.1234    0.7225   -0.0416 H   0  0  0  0  0  0  0  0  0  0  0  0
    2.1094    1.4645   -2.4375 H   0  0  0  0  0  0  0  0  0  0  0  0
    2.5977    2.9714   -3.2329 H   0  0  0  0  0  0  0  0  0  0  0  0
    3.3485    2.5313   -1.7077 H   0  0  0  0  0  0  0  0  0  0  0  0
   -0.3952    2.4627   -2.4827 H   0  0  0  0  0  0  0  0  0  0  0  0
   -0.5450    4.1406   -1.8826 H   0  0  0  0  0  0  0  0  0  0  0  0
    0.3776    3.7981   -3.3420 H   0  0  0  0  0  0  0  0  0  0  0  0
   -1.6576   -2.1052   -0.0476 H   0  0  0  0  0  0  0  0  0  0  0  0
  1  2  1  0  0  0  0
  1  3  2  0  0  0  0
  1  4  1  0  0  0  0
  2  5  1  0  0  0  0
  2  6  2  0  0  0  0
  2  7  2  0  0  0  0
  3  8  1  0  0  0  0
  3 17  1  0  0  0  0
  4  9  2  0  0  0  0
  4 10  1  0  0  0  0
  5 11  1  0  0  0  0
  5 12  1  0  0  0  0
  8 13  2  0  0  0  0
  8 14  1  0  0  0  0
  9 13  1  0  0  0  0
  9 18  1  0  0  0  0
 10 19  1  0  0  0  0
 10 20  1  0  0  0  0
 10 21  1  0  0  0  0
 11 22  1  0  0  0  0
 11 23  1  0  0  0  0
 11 24  1  0  0  0  0
 12 25  1  0  0  0  0
 12 26  1  0  0  0  0
 12 27  1  0  0  0  0
 13 28  1  0  0  0  0
 14 15  2  0  0  0  0
 14 16  1  0  0  0  0
M  CHG  2  14   1  16  -1
M  END
>  <Mol_ID>
3150

>  <Formula>
C9H12N2O4S

>  <MolWeight>
244.26758

>  <Cat>
S5837

>  <Name>
BRL-50481

>  <Synonyms>
N/A

>  <Target>
PDE

>  <Form>
Free Base

>  <CAS>
433695-36-4

>  <URL>
http://www.selleckchem.com/products/brl-50481.html

$$$$
