Bromhexine
 OpenBabel08302520403D

 38 39  0  0  0  0  0  0  0  0999 V2000
    0.2050   -2.3564    0.0455 C   0  0  0  0  0  0  0  0  0  0  0  0
   -0.8520   -1.4347    0.2128 C   0  0  0  0  0  0  0  0  0  0  0  0
   -0.0272   -3.8627    0.0261 C   0  0  0  0  0  0  0  0  0  0  0  0
    1.5275   -1.8797   -0.0484 C   0  0  0  0  0  0  0  0  0  0  0  0
   -0.5553   -0.0572    0.2237 C   0  0  0  0  0  0  0  0  0  0  0  0
   -2.1871   -1.8926    0.1828 N   0  0  0  0  0  0  0  0  0  0  0  0
   -0.6854   -4.3861    1.2475 N   0  0  0  0  0  0  0  0  0  0  0  0
    1.7973   -0.5137    0.0159 C   0  0  0  0  0  0  0  0  0  0  0  0
    0.7613    0.4031    0.1527 C   0  0  0  0  0  0  0  0  0  0  0  0
   -1.9349    1.2384    0.4217 Br  0  0  0  0  0  0  0  0  0  0  0  0
   -0.8890   -5.8569    1.2473 C   0  0  0  0  0  0  0  0  0  0  0  0
    0.0201   -3.9712    2.4680 C   0  0  0  0  0  0  0  0  0  0  0  0
    3.5846    0.0928   -0.0718 Br  0  0  0  0  0  0  0  0  0  0  0  0
    0.3786   -6.7133    1.0341 C   0  0  0  0  0  0  0  0  0  0  0  0
   -1.9876   -6.2865    0.2546 C   0  0  0  0  0  0  0  0  0  0  0  0
    0.0708   -8.2055    1.1631 C   0  0  0  0  0  0  0  0  0  0  0  0
   -2.2932   -7.7816    0.3840 C   0  0  0  0  0  0  0  0  0  0  0  0
   -1.0385   -8.6364    0.2120 C   0  0  0  0  0  0  0  0  0  0  0  0
   -0.6425   -4.0785   -0.8560 H   0  0  0  0  0  0  0  0  0  0  0  0
    0.9343   -4.3619   -0.1363 H   0  0  0  0  0  0  0  0  0  0  0  0
    2.3506   -2.5835   -0.1595 H   0  0  0  0  0  0  0  0  0  0  0  0
   -2.8325   -1.2339    0.6111 H   0  0  0  0  0  0  0  0  0  0  0  0
   -2.2628   -2.8250    0.5971 H   0  0  0  0  0  0  0  0  0  0  0  0
    0.9759    1.4665    0.2051 H   0  0  0  0  0  0  0  0  0  0  0  0
   -1.2868   -6.1147    2.2400 H   0  0  0  0  0  0  0  0  0  0  0  0
    1.0607   -4.3090    2.4888 H   0  0  0  0  0  0  0  0  0  0  0  0
    0.0123   -2.8832    2.5884 H   0  0  0  0  0  0  0  0  0  0  0  0
   -0.4906   -4.3575    3.3569 H   0  0  0  0  0  0  0  0  0  0  0  0
    0.8017   -6.5359    0.0382 H   0  0  0  0  0  0  0  0  0  0  0  0
    1.1522   -6.4542    1.7649 H   0  0  0  0  0  0  0  0  0  0  0  0
   -2.9072   -5.7197    0.4424 H   0  0  0  0  0  0  0  0  0  0  0  0
   -1.6833   -6.0787   -0.7778 H   0  0  0  0  0  0  0  0  0  0  0  0
    0.9775   -8.7866    0.9587 H   0  0  0  0  0  0  0  0  0  0  0  0
   -0.2233   -8.4289    2.1962 H   0  0  0  0  0  0  0  0  0  0  0  0
   -3.0415   -8.0732   -0.3613 H   0  0  0  0  0  0  0  0  0  0  0  0
   -2.7317   -7.9802    1.3701 H   0  0  0  0  0  0  0  0  0  0  0  0
   -0.6844   -8.5563   -0.8241 H   0  0  0  0  0  0  0  0  0  0  0  0
   -1.2850   -9.6905    0.3840 H   0  0  0  0  0  0  0  0  0  0  0  0
  1  2  2  0  0  0  0
  1  3  1  0  0  0  0
  1  4  1  0  0  0  0
  2  5  1  0  0  0  0
  2  6  1  0  0  0  0
  3  7  1  0  0  0  0
  3 19  1  0  0  0  0
  3 20  1  0  0  0  0
  4  8  2  0  0  0  0
  4 21  1  0  0  0  0
  5  9  2  0  0  0  0
  5 10  1  0  0  0  0
  6 22  1  0  0  0  0
  6 23  1  0  0  0  0
  7 11  1  0  0  0  0
  7 12  1  0  0  0  0
  8 13  1  0  0  0  0
  8  9  1  0  0  0  0
  9 24  1  0  0  0  0
 11 14  1  0  0  0  0
 11 15  1  0  0  0  0
 11 25  1  0  0  0  0
 12 26  1  0  0  0  0
 12 27  1  0  0  0  0
 12 28  1  0  0  0  0
 14 16  1  0  0  0  0
 14 29  1  0  0  0  0
 14 30  1  0  0  0  0
 15 17  1  0  0  0  0
 15 31  1  0  0  0  0
 15 32  1  0  0  0  0
 16 18  1  0  0  0  0
 16 33  1  0  0  0  0
 16 34  1  0  0  0  0
 17 18  1  0  0  0  0
 17 35  1  0  0  0  0
 17 36  1  0  0  0  0
 18 37  1  0  0  0  0
 18 38  1  0  0  0  0
M  END
>  <Mol_ID>
3718

>  <Formula>
C14H20Br2N2

>  <MolWeight>
376.13

>  <Cat>
S5943

>  <Name>
Bromhexine

>  <Synonyms>
N/A

>  <Target>
Others

>  <Form>
Free Base

>  <CAS>
3572-43-8

>  <URL>
http://www.selleck.cn/products/bromhexine.html

$$$$
