Bronidox
 OpenBabel08302521373D

 16 16  0  0  0  0  0  0  0  0999 V2000
    0.8699   -0.0208    0.1742 N   0  3  0  0  0  0  0  0  0  0  0  0
    0.2932    1.0639    0.0025 O   0  5  0  0  0  0  0  0  0  0  0  0
    0.3028   -1.0508    0.5711 O   0  0  0  0  0  0  0  0  0  0  0  0
    3.1176    0.3966    1.7301 Br  0  0  0  0  0  0  0  0  0  0  0  0
    2.3719   -0.0664   -0.0189 C   0  0  0  0  0  0  0  0  0  0  0  0
    2.8120    0.9490   -1.0672 C   0  0  0  0  0  0  0  0  0  0  0  0
    2.8191   -1.4635   -0.4331 C   0  0  0  0  0  0  0  0  0  0  0  0
    2.5148    0.5196   -2.3996 O   0  0  0  0  0  0  0  0  0  0  0  0
    2.5205   -1.7462   -1.8037 O   0  0  0  0  0  0  0  0  0  0  0  0
    3.0596   -0.7631   -2.6767 C   0  0  0  0  0  0  0  0  0  0  0  0
    2.3620    1.9381   -0.9256 H   0  0  0  0  0  0  0  0  0  0  0  0
    3.8974    1.1109   -1.0150 H   0  0  0  0  0  0  0  0  0  0  0  0
    3.9053   -1.5729   -0.3096 H   0  0  0  0  0  0  0  0  0  0  0  0
    2.3741   -2.2574    0.1773 H   0  0  0  0  0  0  0  0  0  0  0  0
    2.7811   -1.0326   -3.6994 H   0  0  0  0  0  0  0  0  0  0  0  0
    4.1545   -0.7443   -2.6162 H   0  0  0  0  0  0  0  0  0  0  0  0
  1  2  1  0  0  0  0
  1  3  2  0  0  0  0
  1  5  1  0  0  0  0
  4  5  1  0  0  0  0
  5  6  1  0  0  0  0
  5  7  1  0  0  0  0
  6  8  1  0  0  0  0
  6 11  1  0  0  0  0
  6 12  1  0  0  0  0
  7  9  1  0  0  0  0
  7 13  1  0  0  0  0
  7 14  1  0  0  0  0
  8 10  1  0  0  0  0
  9 10  1  0  0  0  0
 10 15  1  0  0  0  0
 10 16  1  0  0  0  0
M  CHG  2   1   1   2  -1
M  END
>  <Mol_ID>
7371

>  <Formula>
C4H6BrNO4

>  <MolWeight>
211.99874

>  <Cat>
E4423

>  <Name>
Bronidox

>  <Synonyms>
Bronidox

>  <Target>
Antibacterial; Antifungal

>  <Form>
free base

>  <CAS>
30007-47-7

>  <URL>
https://www.selleckchem.com/products/bronidox.html

$$$$
