Brr2 Inhibitor C9
 OpenBabel08302521353D

 52 56  0  0  0  0  0  0  0  0999 V2000
   -1.0244    8.0036   -6.3525 S   0  0  0  0  0  0  0  0  0  0  0  0
   -1.4531   -0.7053   -3.8038 O   0  0  0  0  0  0  0  0  0  0  0  0
    1.7096   -4.7989   -8.4319 O   0  0  0  0  0  0  0  0  0  0  0  0
    0.6503    4.5454   -5.6196 O   0  0  0  0  0  0  0  0  0  0  0  0
    0.6363   -0.0935   -4.6445 N   0  0  0  0  0  0  0  0  0  0  0  0
    3.0285   -3.2803   -7.2647 N   0  0  0  0  0  0  0  0  0  0  0  0
   -0.3300   -2.1565   -5.1150 N   0  0  0  0  0  0  0  0  0  0  0  0
    0.2922    7.6547   -8.5404 N   0  0  0  0  0  0  0  0  0  0  0  0
    1.9727   -1.8182   -5.7172 C   0  0  0  0  0  0  0  0  0  0  0  0
    1.9694   -0.6656   -4.7664 C   0  0  0  0  0  0  0  0  0  0  0  0
    0.7340   -2.5398   -5.8875 C   0  0  0  0  0  0  0  0  0  0  0  0
    3.0760   -2.2323   -6.3615 C   0  0  0  0  0  0  0  0  0  0  0  0
   -0.4319   -0.9621   -4.4340 C   0  0  0  0  0  0  0  0  0  0  0  0
    0.5925    1.2256   -4.1413 C   0  0  0  0  0  0  0  0  0  0  0  0
    4.2654   -3.7271   -7.9166 C   0  0  0  0  0  0  0  0  0  0  0  0
    0.6487   -3.5461   -6.7674 C   0  0  0  0  0  0  0  0  0  0  0  0
    1.8348   -3.9317   -7.5723 C   0  0  0  0  0  0  0  0  0  0  0  0
    4.9943   -4.7873   -7.1147 C   0  0  0  0  0  0  0  0  0  0  0  0
    0.5898    2.2779   -5.0638 C   0  0  0  0  0  0  0  0  0  0  0  0
    0.6771    1.4864   -2.7747 C   0  0  0  0  0  0  0  0  0  0  0  0
    0.6821    3.5999   -4.6264 C   0  0  0  0  0  0  0  0  0  0  0  0
    0.8064    2.8039   -2.3384 C   0  0  0  0  0  0  0  0  0  0  0  0
    4.4078   -6.0442   -6.8960 C   0  0  0  0  0  0  0  0  0  0  0  0
    6.2657   -4.5400   -6.5763 C   0  0  0  0  0  0  0  0  0  0  0  0
    0.8227    3.8561   -3.2612 C   0  0  0  0  0  0  0  0  0  0  0  0
    5.0471   -7.0076   -6.1151 C   0  0  0  0  0  0  0  0  0  0  0  0
    6.9106   -5.5108   -5.8038 C   0  0  0  0  0  0  0  0  0  0  0  0
    6.2945   -6.7371   -5.5607 C   0  0  0  0  0  0  0  0  0  0  0  0
    0.3637    5.8788   -5.1917 C   0  0  0  0  0  0  0  0  0  0  0  0
    0.1138    6.7143   -6.4038 C   0  0  0  0  0  0  0  0  0  0  0  0
    0.7046    6.6816   -7.6523 C   0  0  0  0  0  0  0  0  0  0  0  0
   -0.6135    8.4148   -7.9643 C   0  0  0  0  0  0  0  0  0  0  0  0
   -1.1838   -2.7032   -5.1124 H   0  0  0  0  0  0  0  0  0  0  0  0
    2.6582    0.1130   -5.1193 H   0  0  0  0  0  0  0  0  0  0  0  0
    2.2887   -1.0009   -3.7717 H   0  0  0  0  0  0  0  0  0  0  0  0
    4.0403   -1.7608   -6.2000 H   0  0  0  0  0  0  0  0  0  0  0  0
    4.0405   -4.1261   -8.9128 H   0  0  0  0  0  0  0  0  0  0  0  0
    4.9118   -2.8537   -8.0742 H   0  0  0  0  0  0  0  0  0  0  0  0
   -0.2595   -4.1054   -6.9553 H   0  0  0  0  0  0  0  0  0  0  0  0
    0.5049    2.0669   -6.1268 H   0  0  0  0  0  0  0  0  0  0  0  0
    0.6664    0.6741   -2.0533 H   0  0  0  0  0  0  0  0  0  0  0  0
    0.9050    3.0138   -1.2762 H   0  0  0  0  0  0  0  0  0  0  0  0
    3.4400   -6.2837   -7.3316 H   0  0  0  0  0  0  0  0  0  0  0  0
    6.7671   -3.5914   -6.7522 H   0  0  0  0  0  0  0  0  0  0  0  0
    0.9540    4.8630   -2.8783 H   0  0  0  0  0  0  0  0  0  0  0  0
    4.5667   -7.9669   -5.9407 H   0  0  0  0  0  0  0  0  0  0  0  0
    7.8942   -5.3101   -5.3867 H   0  0  0  0  0  0  0  0  0  0  0  0
    6.7875   -7.4846   -4.9449 H   0  0  0  0  0  0  0  0  0  0  0  0
    1.2291    6.2902   -4.6588 H   0  0  0  0  0  0  0  0  0  0  0  0
   -0.5188    5.8840   -4.5402 H   0  0  0  0  0  0  0  0  0  0  0  0
    1.4598    5.9701   -7.9659 H   0  0  0  0  0  0  0  0  0  0  0  0
   -1.0747    9.2531   -8.4694 H   0  0  0  0  0  0  0  0  0  0  0  0
  1 30  1  0  0  0  0
  1 32  1  0  0  0  0
  2 13  2  0  0  0  0
  3 17  2  0  0  0  0
  4 21  1  0  0  0  0
  4 29  1  0  0  0  0
  5 10  1  0  0  0  0
  5 13  1  0  0  0  0
  5 14  1  0  0  0  0
  6 12  1  0  0  0  0
  6 15  1  0  0  0  0
  6 17  1  0  0  0  0
  7 11  1  0  0  0  0
  7 13  1  0  0  0  0
  7 33  1  0  0  0  0
  8 31  1  0  0  0  0
  8 32  2  0  0  0  0
  9 10  1  0  0  0  0
  9 11  1  0  0  0  0
  9 12  2  0  0  0  0
 10 34  1  0  0  0  0
 10 35  1  0  0  0  0
 11 16  2  0  0  0  0
 12 36  1  0  0  0  0
 14 19  2  0  0  0  0
 14 20  1  0  0  0  0
 15 18  1  0  0  0  0
 15 37  1  0  0  0  0
 15 38  1  0  0  0  0
 16 17  1  0  0  0  0
 16 39  1  0  0  0  0
 18 23  2  0  0  0  0
 18 24  1  0  0  0  0
 19 21  1  0  0  0  0
 19 40  1  0  0  0  0
 20 22  2  0  0  0  0
 20 41  1  0  0  0  0
 21 25  2  0  0  0  0
 22 25  1  0  0  0  0
 22 42  1  0  0  0  0
 23 26  1  0  0  0  0
 23 43  1  0  0  0  0
 24 27  2  0  0  0  0
 24 44  1  0  0  0  0
 25 45  1  0  0  0  0
 26 28  2  0  0  0  0
 26 46  1  0  0  0  0
 27 28  1  0  0  0  0
 27 47  1  0  0  0  0
 28 48  1  0  0  0  0
 29 30  1  0  0  0  0
 29 49  1  0  0  0  0
 29 50  1  0  0  0  0
 30 31  2  0  0  0  0
 31 51  1  0  0  0  0
 32 52  1  0  0  0  0
M  END
>  <Mol_ID>
6642

>  <Formula>
C24H20N4O3S

>  <MolWeight>
444.5056

>  <Cat>
S0816

>  <Name>
Brr2 Inhibitor C9

>  <Synonyms>
Brr2 Inhibitor 9

>  <Target>
DNA/RNA Synthesis

>  <Form>
Free base

>  <CAS>
2104030-82-0

>  <URL>
http://www.selleckchem.com/products/brr2-inhibitor-c9.html

$$$$
