BTB-1
 OpenBabel08302521243D

 27 28  0  0  0  0  0  0  0  0999 V2000
    1.4180   -0.2570    0.0848 C   0  0  0  0  0  0  0  0  0  0  0  0
    0.6307   -1.2716   -0.4608 C   0  0  0  0  0  0  0  0  0  0  0  0
    3.1746   -0.4129    0.2964 S   0  0  0  0  0  0  0  0  0  0  0  0
    0.7879    0.8775    0.6190 C   0  0  0  0  0  0  0  0  0  0  0  0
   -0.7692   -1.1633   -0.4884 C   0  0  0  0  0  0  0  0  0  0  0  0
    1.2099   -2.4406   -1.0875 N   0  3  0  0  0  0  0  0  0  0  0  0
    3.9898    0.2030   -1.1530 C   0  0  0  0  0  0  0  0  0  0  0  0
    3.5429    0.4936    1.3711 O   0  0  0  0  0  0  0  0  0  0  0  0
    3.4609   -1.8265    0.4323 O   0  0  0  0  0  0  0  0  0  0  0  0
   -0.6045    0.9954    0.5817 C   0  0  0  0  0  0  0  0  0  0  0  0
   -1.3823   -0.0253    0.0343 C   0  0  0  0  0  0  0  0  0  0  0  0
    1.9029   -2.2356   -2.0943 O   0  0  0  0  0  0  0  0  0  0  0  0
    0.8930   -3.5445   -0.6308 O   0  5  0  0  0  0  0  0  0  0  0  0
    3.7398    1.5150   -1.5703 C   0  0  0  0  0  0  0  0  0  0  0  0
    4.9269   -0.5905   -1.8193 C   0  0  0  0  0  0  0  0  0  0  0  0
    4.4235    2.0287   -2.6720 C   0  0  0  0  0  0  0  0  0  0  0  0
    5.6123   -0.0657   -2.9161 C   0  0  0  0  0  0  0  0  0  0  0  0
    5.3588    1.2393   -3.3423 C   0  0  0  0  0  0  0  0  0  0  0  0
    1.3686    1.6710    1.0852 H   0  0  0  0  0  0  0  0  0  0  0  0
   -1.3837   -1.9554   -0.9162 H   0  0  0  0  0  0  0  0  0  0  0  0
   -1.0830    1.8799    0.9981 H   0  0  0  0  0  0  0  0  0  0  0  0
   -2.4663    0.0674    0.0203 H   0  0  0  0  0  0  0  0  0  0  0  0
    3.0432    2.1536   -1.0341 H   0  0  0  0  0  0  0  0  0  0  0  0
    5.1407   -1.6048   -1.4880 H   0  0  0  0  0  0  0  0  0  0  0  0
    4.2417    3.0493   -3.0003 H   0  0  0  0  0  0  0  0  0  0  0  0
    6.3523   -0.6715   -3.4341 H   0  0  0  0  0  0  0  0  0  0  0  0
    5.9005    1.6456   -4.1936 H   0  0  0  0  0  0  0  0  0  0  0  0
  1  2  2  0  0  0  0
  1  3  1  0  0  0  0
  1  4  1  0  0  0  0
  2  5  1  0  0  0  0
  2  6  1  0  0  0  0
  3  7  1  0  0  0  0
  3  8  2  0  0  0  0
  3  9  2  0  0  0  0
  4 10  2  0  0  0  0
  4 19  1  0  0  0  0
  5 11  2  0  0  0  0
  5 20  1  0  0  0  0
  6 12  2  0  0  0  0
  6 13  1  0  0  0  0
  7 14  2  0  0  0  0
  7 15  1  0  0  0  0
 10 11  1  0  0  0  0
 10 21  1  0  0  0  0
 11 22  1  0  0  0  0
 14 16  1  0  0  0  0
 14 23  1  0  0  0  0
 15 17  2  0  0  0  0
 15 24  1  0  0  0  0
 16 18  2  0  0  0  0
 16 25  1  0  0  0  0
 17 18  1  0  0  0  0
 17 26  1  0  0  0  0
 18 27  1  0  0  0  0
M  CHG  2   6   1  13  -1
M  END
>  <Mol_ID>
4939

>  <Formula>
C12H8ClNO4S

>  <MolWeight>
297.71422

>  <Cat>
S6796

>  <Name>
BTB-1

>  <Synonyms>
N/A

>  <Target>
Kinesin

>  <Form>
Free Base

>  <CAS>
86030-08-2

>  <URL>
http://www.selleckchem.com/products/btb-1.html

$$$$
