BTB06584.cdx
 OpenBabel08302519583D

 40 42  0  0  0  0  0  0  0  0999 V2000
   -5.4287    3.6876   -2.6262 C   0  0  0  0  0  0  0  0  0  0  0  0
   -4.1712    3.2689   -3.0634 C   0  0  0  0  0  0  0  0  0  0  0  0
   -3.4745    2.2907   -2.3528 C   0  0  0  0  0  0  0  0  0  0  0  0
   -4.0464    1.7369   -1.2026 C   0  0  0  0  0  0  0  0  0  0  0  0
   -5.3028    2.1579   -0.7559 C   0  0  0  0  0  0  0  0  0  0  0  0
   -5.9936    3.1334   -1.4757 C   0  0  0  0  0  0  0  0  0  0  0  0
   -3.1610    0.5001   -0.2776 S   0  0  0  0  0  0  0  0  0  0  0  0
   -1.9194    0.2268   -0.9755 O   0  0  0  0  0  0  0  0  0  0  0  0
   -3.1618    0.9449    1.1013 O   0  0  0  0  0  0  0  0  0  0  0  0
   -4.0665   -1.0298   -0.3201 C   0  0  0  0  0  0  0  0  0  0  0  0
   -3.9604   -1.9262    0.7443 C   0  0  0  0  0  0  0  0  0  0  0  0
   -4.6021   -3.1684    0.6673 C   0  0  0  0  0  0  0  0  0  0  0  0
   -5.3878   -3.4947   -0.4550 C   0  0  0  0  0  0  0  0  0  0  0  0
   -5.5660   -2.5415   -1.4699 C   0  0  0  0  0  0  0  0  0  0  0  0
   -4.8564   -1.3330   -1.4236 C   0  0  0  0  0  0  0  0  0  0  0  0
   -6.3522   -2.7813   -2.6117 O   0  0  0  0  0  0  0  0  0  0  0  0
   -7.1750   -1.7409   -3.0378 C   0  0  0  0  0  0  0  0  0  0  0  0
   -7.4992   -0.7636   -2.3846 O   0  0  0  0  0  0  0  0  0  0  0  0
   -7.5257   -1.9254   -4.4718 C   0  0  0  0  0  0  0  0  0  0  0  0
   -8.1461   -0.8669   -5.1529 C   0  0  0  0  0  0  0  0  0  0  0  0
   -8.4829   -1.0010   -6.5027 C   0  0  0  0  0  0  0  0  0  0  0  0
   -8.1975   -2.1877   -7.1768 C   0  0  0  0  0  0  0  0  0  0  0  0
   -7.5631   -3.2349   -6.5100 C   0  0  0  0  0  0  0  0  0  0  0  0
   -7.2259   -3.1066   -5.1614 C   0  0  0  0  0  0  0  0  0  0  0  0
   -5.9282   -4.8590   -0.5486 N   0  3  0  0  0  0  0  0  0  0  0  0
   -5.6322   -5.6524    0.3596 O   0  0  0  0  0  0  0  0  0  0  0  0
   -6.6198   -5.1617   -1.5290 O   0  5  0  0  0  0  0  0  0  0  0  0
   -5.9672    4.4545   -3.1787 H   0  0  0  0  0  0  0  0  0  0  0  0
   -3.7314    3.7127   -3.9538 H   0  0  0  0  0  0  0  0  0  0  0  0
   -2.4915    1.9775   -2.6978 H   0  0  0  0  0  0  0  0  0  0  0  0
   -5.7457    1.7422    0.1461 H   0  0  0  0  0  0  0  0  0  0  0  0
   -6.9713    3.4688   -1.1371 H   0  0  0  0  0  0  0  0  0  0  0  0
   -3.3510   -1.6827    1.6141 H   0  0  0  0  0  0  0  0  0  0  0  0
   -4.4584   -3.8755    1.4853 H   0  0  0  0  0  0  0  0  0  0  0  0
   -4.9210   -0.6395   -2.2580 H   0  0  0  0  0  0  0  0  0  0  0  0
   -8.3647    0.0691   -4.6419 H   0  0  0  0  0  0  0  0  0  0  0  0
   -8.9689   -0.1823   -7.0286 H   0  0  0  0  0  0  0  0  0  0  0  0
   -8.4688   -2.2979   -8.2242 H   0  0  0  0  0  0  0  0  0  0  0  0
   -7.3326   -4.1568   -7.0387 H   0  0  0  0  0  0  0  0  0  0  0  0
   -6.7302   -3.9384   -4.6669 H   0  0  0  0  0  0  0  0  0  0  0  0
  1  2  2  0  0  0  0
  1 28  1  0  0  0  0
  2  3  1  0  0  0  0
  2 29  1  0  0  0  0
  3  4  2  0  0  0  0
  3 30  1  0  0  0  0
  4  5  1  0  0  0  0
  4  7  1  0  0  0  0
  5  6  2  0  0  0  0
  5 31  1  0  0  0  0
  6  1  1  0  0  0  0
  6 32  1  0  0  0  0
  7  8  2  0  0  0  0
  7  9  2  0  0  0  0
  7 10  1  0  0  0  0
 10 11  2  0  0  0  0
 11 12  1  0  0  0  0
 11 33  1  0  0  0  0
 12 13  2  0  0  0  0
 12 34  1  0  0  0  0
 13 14  1  0  0  0  0
 13 25  1  0  0  0  0
 14 15  2  0  0  0  0
 14 16  1  0  0  0  0
 15 10  1  0  0  0  0
 15 35  1  0  0  0  0
 16 17  1  0  0  0  0
 17 18  2  0  0  0  0
 17 19  1  0  0  0  0
 19 20  2  0  0  0  0
 20 21  1  0  0  0  0
 20 36  1  0  0  0  0
 21 22  2  0  0  0  0
 21 37  1  0  0  0  0
 22 23  1  0  0  0  0
 22 38  1  0  0  0  0
 23 24  2  0  0  0  0
 23 39  1  0  0  0  0
 24 19  1  0  0  0  0
 24 40  1  0  0  0  0
 25 26  2  0  0  0  0
 25 27  1  0  0  0  0
M  CHG  2  25   1  27  -1
M  END
>  <Mol_ID>
2364

>  <Formula>
C19H12ClNO6S

>  <MolWeight>
417.81968

>  <Cat>
S7460

>  <Name>
BTB06584

>  <Synonyms>
N/A

>  <Target>
ATPase

>  <Form>
free base

>  <CAS>
219793-45-0

>  <URL>
http://selleckchem.com/products/btb06584.html

$$$$
