Bucetin.cdx
 OpenBabel08302519503D

 33 33  0  0  0  0  0  0  0  0999 V2000
    1.4160   -0.2049    0.0987 C   0  0  0  0  0  0  0  0  0  0  0  0
    0.5643   -1.3106    0.1559 C   0  0  0  0  0  0  0  0  0  0  0  0
    0.8466    1.0684    0.0216 C   0  0  0  0  0  0  0  0  0  0  0  0
    2.8263   -0.3191    0.1131 N   0  0  0  0  0  0  0  0  0  0  0  0
   -0.8230   -1.1583    0.0962 C   0  0  0  0  0  0  0  0  0  0  0  0
   -0.5481    1.2204   -0.0532 C   0  0  0  0  0  0  0  0  0  0  0  0
    3.5415   -1.4815   -0.1330 C   0  0  0  0  0  0  0  0  0  0  0  0
   -1.3892    0.1051   -0.0280 C   0  0  0  0  0  0  0  0  0  0  0  0
    5.0397   -1.3260   -0.0106 C   0  0  0  0  0  0  0  0  0  0  0  0
    3.0710   -2.5759   -0.4256 O   0  0  0  0  0  0  0  0  0  0  0  0
   -2.7284    0.3716   -0.1349 O   0  0  0  0  0  0  0  0  0  0  0  0
    5.5390   -1.6513    1.3930 C   0  0  3  0  0  0  0  0  0  0  0  0
   -3.6012   -0.7597   -0.1214 C   0  0  0  0  0  0  0  0  0  0  0  0
    5.2059   -3.0639    1.8624 C   0  0  0  0  0  0  0  0  0  0  0  0
    6.9610   -1.4915    1.4068 O   0  0  0  0  0  0  0  0  0  0  0  0
   -5.0279   -0.2811   -0.3173 C   0  0  0  0  0  0  0  0  0  0  0  0
    0.9518   -2.3196    0.2651 H   0  0  0  0  0  0  0  0  0  0  0  0
    1.4673    1.9598   -0.0155 H   0  0  0  0  0  0  0  0  0  0  0  0
    3.3460    0.5485    0.1692 H   0  0  0  0  0  0  0  0  0  0  0  0
   -1.4241   -2.0599    0.1409 H   0  0  0  0  0  0  0  0  0  0  0  0
   -0.9777    2.2153   -0.1435 H   0  0  0  0  0  0  0  0  0  0  0  0
    5.5131   -1.9827   -0.7517 H   0  0  0  0  0  0  0  0  0  0  0  0
    5.3428   -0.3108   -0.2940 H   0  0  0  0  0  0  0  0  0  0  0  0
    5.1299   -0.9323    2.1112 H   0  0  0  0  0  0  0  0  0  0  0  0
   -3.3502   -1.4494   -0.9369 H   0  0  0  0  0  0  0  0  0  0  0  0
   -3.5286   -1.2761    0.8431 H   0  0  0  0  0  0  0  0  0  0  0  0
    5.5497   -3.8119    1.1395 H   0  0  0  0  0  0  0  0  0  0  0  0
    5.7146   -3.2824    2.8076 H   0  0  0  0  0  0  0  0  0  0  0  0
    4.1307   -3.1950    2.0157 H   0  0  0  0  0  0  0  0  0  0  0  0
    7.3494   -2.2347    0.9093 H   0  0  0  0  0  0  0  0  0  0  0  0
   -5.1400    0.2061   -1.2913 H   0  0  0  0  0  0  0  0  0  0  0  0
   -5.7273   -1.1213   -0.2642 H   0  0  0  0  0  0  0  0  0  0  0  0
   -5.2997    0.4550    0.4454 H   0  0  0  0  0  0  0  0  0  0  0  0
  1  2  2  0  0  0  0
  1  3  1  0  0  0  0
  1  4  1  0  0  0  0
  2  5  1  0  0  0  0
  2 17  1  0  0  0  0
  3  6  2  0  0  0  0
  3 18  1  0  0  0  0
  4  7  1  0  0  0  0
  4 19  1  0  0  0  0
  5  8  2  0  0  0  0
  5 20  1  0  0  0  0
  6  8  1  0  0  0  0
  6 21  1  0  0  0  0
  7  9  1  0  0  0  0
  7 10  2  0  0  0  0
  8 11  1  0  0  0  0
  9 12  1  0  0  0  0
  9 22  1  0  0  0  0
  9 23  1  0  0  0  0
 11 13  1  0  0  0  0
 12 14  1  0  0  0  0
 12 15  1  0  0  0  0
 12 24  1  0  0  0  0
 13 16  1  0  0  0  0
 13 25  1  0  0  0  0
 13 26  1  0  0  0  0
 14 27  1  0  0  0  0
 14 28  1  0  0  0  0
 14 29  1  0  0  0  0
 15 30  1  0  0  0  0
 16 31  1  0  0  0  0
 16 32  1  0  0  0  0
 16 33  1  0  0  0  0
M  END
>  <Mol_ID>
1495

>  <Formula>
C12H17NO3

>  <MolWeight>
223.26828

>  <Cat>
S4554

>  <Name>
Bucetin

>  <Synonyms>
N/A

>  <Target>
Others

>  <Form>
free base

>  <CAS>
1083-57-4

>  <URL>
http://selleckchem.com/products/bucetin.html

$$$$
