Bufotalin
 OpenBabel08302521583D

 68 72  0  0  1  0  0  0  0  0999 V2000
    2.3335    2.6598   -1.4211 C   0  0  0  0  0  0  0  0  0  0  0  0
    3.1772    2.4458    1.9135 O   0  0  0  0  0  0  0  0  0  0  0  0
    4.4473    2.2375    2.3397 C   0  0  0  0  0  0  0  0  0  0  0  0
    5.1467    3.5513    2.4734 C   0  0  0  0  0  0  0  0  0  0  0  0
    4.9528    1.1510    2.5587 O   0  0  0  0  0  0  0  0  0  0  0  0
    1.1824    3.8006    0.7545 O   0  0  0  0  0  0  0  0  0  0  0  0
    4.6715   -2.6182   -3.0724 O   0  0  0  0  0  0  0  0  0  0  0  0
   -3.4621    2.0463   -1.8259 C   0  0  0  0  0  0  0  0  0  0  0  0
   -6.4277    0.5412    0.3905 O   0  0  0  0  0  0  0  0  0  0  0  0
    2.3570    0.6840    0.3864 C   0  0  2  0  0  0  0  0  0  0  0  0
    1.5358    1.6636   -0.5558 C   0  0  1  0  0  0  0  0  0  0  0  0
    2.3315    1.3029    1.7889 C   0  0  2  0  0  0  0  0  0  0  0  0
    0.6445    2.4890    0.4845 C   0  0  1  0  0  0  0  0  0  0  0  0
    0.7840    0.7114   -1.5458 C   0  0  0  0  0  0  0  0  0  0  0  0
    0.8468    1.7600    1.8378 C   0  0  0  0  0  0  0  0  0  0  0  0
   -0.8110    2.7016   -0.0073 C   0  0  1  0  0  0  0  0  0  0  0  0
   -0.6352    1.1109   -1.8672 C   0  0  0  0  0  0  0  0  0  0  0  0
   -1.3705    1.3712   -0.5430 C   0  0  2  0  0  0  0  0  0  0  0  0
   -1.7327    3.4202    0.9785 C   0  0  0  0  0  0  0  0  0  0  0  0
   -2.9160    1.2313   -0.6301 C   0  0  1  0  0  0  0  0  0  0  0  0
   -2.6846    2.4701    1.6727 C   0  0  0  0  0  0  0  0  0  0  0  0
   -3.6070    1.7213    0.6927 C   0  0  2  0  0  0  0  0  0  0  0  0
   -3.2201   -0.2827   -0.8772 C   0  0  0  0  0  0  0  0  0  0  0  0
   -4.2785    0.5813    1.4836 C   0  0  0  0  0  0  0  0  0  0  0  0
   -4.6816   -0.6672   -0.7033 C   0  0  0  0  0  0  0  0  0  0  0  0
   -5.2553   -0.2301    0.6399 C   0  0  2  0  0  0  0  0  0  0  0  0
    3.5031   -0.1185   -0.1893 C   0  0  0  0  0  0  0  0  0  0  0  0
    4.3582    0.3831   -1.2325 C   0  0  0  0  0  0  0  0  0  0  0  0
    3.5425   -1.4506    0.0128 C   0  0  0  0  0  0  0  0  0  0  0  0
    4.7797   -0.4373   -2.2005 C   0  0  0  0  0  0  0  0  0  0  0  0
    4.1698   -2.3526   -0.8615 O   0  0  0  0  0  0  0  0  0  0  0  0
    4.5148   -1.8852   -2.1035 C   0  0  0  0  0  0  0  0  0  0  0  0
    2.8131    2.1891   -2.2857 H   0  0  0  0  0  0  0  0  0  0  0  0
    1.6628    3.4115   -1.8559 H   0  0  0  0  0  0  0  0  0  0  0  0
    3.1047    3.1794   -0.8453 H   0  0  0  0  0  0  0  0  0  0  0  0
    4.5054    4.2628    3.0011 H   0  0  0  0  0  0  0  0  0  0  0  0
    6.0572    3.4179    3.0638 H   0  0  0  0  0  0  0  0  0  0  0  0
    5.4031    3.9344    1.4831 H   0  0  0  0  0  0  0  0  0  0  0  0
    1.2733    4.3079   -0.0640 H   0  0  0  0  0  0  0  0  0  0  0  0
   -3.1155    1.6415   -2.7837 H   0  0  0  0  0  0  0  0  0  0  0  0
   -4.5566    2.0292   -1.8561 H   0  0  0  0  0  0  0  0  0  0  0  0
   -3.1465    3.0933   -1.7760 H   0  0  0  0  0  0  0  0  0  0  0  0
   -6.8146    0.7720    1.2524 H   0  0  0  0  0  0  0  0  0  0  0  0
    1.6339   -0.1325    0.5750 H   0  0  0  0  0  0  0  0  0  0  0  0
    2.5233    0.5737    2.5854 H   0  0  0  0  0  0  0  0  0  0  0  0
    0.7135   -0.3095   -1.1454 H   0  0  0  0  0  0  0  0  0  0  0  0
    1.3499    0.5853   -2.4776 H   0  0  0  0  0  0  0  0  0  0  0  0
    0.6669    2.4164    2.6950 H   0  0  0  0  0  0  0  0  0  0  0  0
    0.1933    0.8851    1.9269 H   0  0  0  0  0  0  0  0  0  0  0  0
   -0.7332    3.4123   -0.8497 H   0  0  0  0  0  0  0  0  0  0  0  0
   -1.0870    0.3017   -2.4474 H   0  0  0  0  0  0  0  0  0  0  0  0
   -0.6385    1.9947   -2.5166 H   0  0  0  0  0  0  0  0  0  0  0  0
   -1.0652    0.5890    0.1663 H   0  0  0  0  0  0  0  0  0  0  0  0
   -1.1617    3.9863    1.7234 H   0  0  0  0  0  0  0  0  0  0  0  0
   -2.3257    4.1658    0.4319 H   0  0  0  0  0  0  0  0  0  0  0  0
   -3.3031    3.0419    2.3751 H   0  0  0  0  0  0  0  0  0  0  0  0
   -2.1066    1.7623    2.2780 H   0  0  0  0  0  0  0  0  0  0  0  0
   -4.4018    2.4285    0.4159 H   0  0  0  0  0  0  0  0  0  0  0  0
   -2.6243   -0.8960   -0.1859 H   0  0  0  0  0  0  0  0  0  0  0  0
   -2.9087   -0.5898   -1.8818 H   0  0  0  0  0  0  0  0  0  0  0  0
   -3.5069   -0.0857    1.8897 H   0  0  0  0  0  0  0  0  0  0  0  0
   -4.8086    1.0123    2.3424 H   0  0  0  0  0  0  0  0  0  0  0  0
   -4.7508   -1.7604   -0.7781 H   0  0  0  0  0  0  0  0  0  0  0  0
   -5.2720   -0.2724   -1.5376 H   0  0  0  0  0  0  0  0  0  0  0  0
   -5.5685   -1.1144    1.2071 H   0  0  0  0  0  0  0  0  0  0  0  0
    4.6272    1.4328   -1.2489 H   0  0  0  0  0  0  0  0  0  0  0  0
    2.9551   -2.0021    0.7267 H   0  0  0  0  0  0  0  0  0  0  0  0
    5.3328   -0.0993   -3.0645 H   0  0  0  0  0  0  0  0  0  0  0  0
  1 33  1  0  0  0  0
  1 34  1  0  0  0  0
  1 35  1  0  0  0  0
  2  3  1  0  0  0  0
  3  4  1  0  0  0  0
  3  5  2  0  0  0  0
  4 36  1  0  0  0  0
  4 37  1  0  0  0  0
  4 38  1  0  0  0  0
  6 39  1  0  0  0  0
  7 32  2  0  0  0  0
  8 40  1  0  0  0  0
  8 41  1  0  0  0  0
  8 42  1  0  0  0  0
  9 43  1  0  0  0  0
 10 11  1  0  0  0  0
 10 12  1  0  0  0  0
 10 27  1  0  0  0  0
 10 44  1  1  0  0  0
 11  1  1  6  0  0  0
 11 13  1  0  0  0  0
 11 14  1  0  0  0  0
 12  2  1  0  0  0  0
 12 15  1  0  0  0  0
 12 45  1  1  0  0  0
 13  6  1  1  0  0  0
 13 15  1  0  0  0  0
 13 16  1  0  0  0  0
 14 17  1  0  0  0  0
 14 46  1  0  0  0  0
 14 47  1  0  0  0  0
 15 48  1  0  0  0  0
 15 49  1  0  0  0  0
 16 18  1  0  0  0  0
 16 19  1  0  0  0  0
 16 50  1  6  0  0  0
 17 51  1  0  0  0  0
 17 52  1  0  0  0  0
 18 17  1  0  0  0  0
 18 20  1  0  0  0  0
 18 53  1  1  0  0  0
 19 21  1  0  0  0  0
 19 54  1  0  0  0  0
 19 55  1  0  0  0  0
 20  8  1  6  0  0  0
 20 22  1  0  0  0  0
 20 23  1  0  0  0  0
 21 56  1  0  0  0  0
 21 57  1  0  0  0  0
 22 21  1  0  0  0  0
 22 24  1  0  0  0  0
 22 58  1  6  0  0  0
 23 25  1  0  0  0  0
 23 59  1  0  0  0  0
 23 60  1  0  0  0  0
 24 26  1  0  0  0  0
 24 61  1  0  0  0  0
 24 62  1  0  0  0  0
 25 26  1  0  0  0  0
 25 63  1  0  0  0  0
 25 64  1  0  0  0  0
 26  9  1  0  0  0  0
 26 65  1  1  0  0  0
 27 28  1  0  0  0  0
 27 29  2  0  0  0  0
 28 30  2  0  0  0  0
 28 66  1  0  0  0  0
 29 31  1  0  0  0  0
 29 67  1  0  0  0  0
 30 32  1  0  0  0  0
 30 68  1  0  0  0  0
 31 32  1  0  0  0  0
M  END
>  <Mol_ID>
10092

>  <Formula>
C26H36O6

>  <MolWeight>
444.56044

>  <Cat>
S0910

>  <Name>
Bufotalin

>  <Synonyms>
NA

>  <Target>
Apoptosis

>  <Form>
Free Base

>  <CAS>
471-95-4

>  <URL>
https://www.selleckchem.com/products/bufotalin.html

$$$$
