Bumetanide.cdx
 OpenBabel08302522053D

 45 46  0  0  0  0  0  0  0  0999 V2000
    1.5469   -0.1931   -0.0866 C   0  0  0  0  0  0  0  0  0  0  0  0
    0.7016   -1.3195   -0.0312 C   0  0  0  0  0  0  0  0  0  0  0  0
   -0.6970   -1.1449   -0.0891 C   0  0  0  0  0  0  0  0  0  0  0  0
   -1.2413    0.1777   -0.0933 C   0  0  0  0  0  0  0  0  0  0  0  0
   -0.3655    1.2735   -0.0864 C   0  0  0  0  0  0  0  0  0  0  0  0
    1.0180    1.0967   -0.1187 C   0  0  0  0  0  0  0  0  0  0  0  0
    1.8768    2.3045   -0.1882 C   0  0  0  0  0  0  0  0  0  0  0  0
    1.4926    3.4582   -0.1499 O   0  0  0  0  0  0  0  0  0  0  0  0
    3.1780    2.0042   -0.3398 O   0  0  0  0  0  0  0  0  0  0  0  0
    1.5568   -2.8745    0.0871 S   0  0  0  0  0  0  0  0  0  0  0  0
    0.7077   -3.9417    0.5683 O   0  0  0  0  0  0  0  0  0  0  0  0
    2.4296   -3.0029   -1.0581 O   0  0  0  0  0  0  0  0  0  0  0  0
    2.5700   -2.6814    1.4121 N   0  0  0  0  0  0  0  0  0  0  0  0
   -1.6660   -2.1385   -0.0893 O   0  0  0  0  0  0  0  0  0  0  0  0
   -1.5492   -3.2548   -0.8908 C   0  0  0  0  0  0  0  0  0  0  0  0
   -2.1514   -4.4226   -0.3942 C   0  0  0  0  0  0  0  0  0  0  0  0
   -1.8570   -5.6593   -0.9751 C   0  0  0  0  0  0  0  0  0  0  0  0
   -0.9749   -5.7273   -2.0477 C   0  0  0  0  0  0  0  0  0  0  0  0
   -0.4673   -4.5537   -2.6083 C   0  0  0  0  0  0  0  0  0  0  0  0
   -0.7978   -3.3109   -2.0626 C   0  0  0  0  0  0  0  0  0  0  0  0
   -2.6276    0.3741   -0.0481 N   0  0  0  0  0  0  0  0  0  0  0  0
   -3.2880    1.5359   -0.6472 C   0  0  0  0  0  0  0  0  0  0  0  0
   -3.0713    1.6644   -2.1601 C   0  0  0  0  0  0  0  0  0  0  0  0
   -3.5717    0.4585   -2.9564 C   0  0  0  0  0  0  0  0  0  0  0  0
   -3.3397    0.6392   -4.4502 C   0  0  0  0  0  0  0  0  0  0  0  0
    2.6266   -0.3316   -0.1001 H   0  0  0  0  0  0  0  0  0  0  0  0
   -0.7582    2.2871   -0.0538 H   0  0  0  0  0  0  0  0  0  0  0  0
    3.6172    2.8785   -0.4078 H   0  0  0  0  0  0  0  0  0  0  0  0
    2.1871   -3.3079    2.1265 H   0  0  0  0  0  0  0  0  0  0  0  0
    3.5087   -2.9679    1.1309 H   0  0  0  0  0  0  0  0  0  0  0  0
   -2.7790   -4.3811    0.4906 H   0  0  0  0  0  0  0  0  0  0  0  0
   -2.2608   -6.5708   -0.5399 H   0  0  0  0  0  0  0  0  0  0  0  0
   -0.6632   -6.6944   -2.4349 H   0  0  0  0  0  0  0  0  0  0  0  0
    0.2435   -4.6108   -3.4287 H   0  0  0  0  0  0  0  0  0  0  0  0
   -0.3582   -2.4165   -2.4952 H   0  0  0  0  0  0  0  0  0  0  0  0
   -3.1608   -0.4918   -0.0925 H   0  0  0  0  0  0  0  0  0  0  0  0
   -4.3634    1.4522   -0.4487 H   0  0  0  0  0  0  0  0  0  0  0  0
   -2.9684    2.4590   -0.1494 H   0  0  0  0  0  0  0  0  0  0  0  0
   -3.6026    2.5619   -2.5060 H   0  0  0  0  0  0  0  0  0  0  0  0
   -2.0114    1.8346   -2.3806 H   0  0  0  0  0  0  0  0  0  0  0  0
   -3.0551   -0.4504   -2.6308 H   0  0  0  0  0  0  0  0  0  0  0  0
   -4.6421    0.3106   -2.7739 H   0  0  0  0  0  0  0  0  0  0  0  0
   -2.2765    0.7825   -4.6692 H   0  0  0  0  0  0  0  0  0  0  0  0
   -3.6801   -0.2469   -4.9955 H   0  0  0  0  0  0  0  0  0  0  0  0
   -3.8888    1.5049   -4.8344 H   0  0  0  0  0  0  0  0  0  0  0  0
  1  2  2  0  0  0  0
  1 26  1  0  0  0  0
  2  3  1  0  0  0  0
  2 10  1  0  0  0  0
  3  4  2  0  0  0  0
  3 14  1  0  0  0  0
  4  5  1  0  0  0  0
  4 21  1  0  0  0  0
  5  6  2  0  0  0  0
  5 27  1  0  0  0  0
  6  1  1  0  0  0  0
  6  7  1  0  0  0  0
  7  8  2  0  0  0  0
  7  9  1  0  0  0  0
  9 28  1  0  0  0  0
 10 11  2  0  0  0  0
 10 12  2  0  0  0  0
 10 13  1  0  0  0  0
 13 29  1  0  0  0  0
 13 30  1  0  0  0  0
 14 15  1  0  0  0  0
 15 16  2  0  0  0  0
 16 17  1  0  0  0  0
 16 31  1  0  0  0  0
 17 18  2  0  0  0  0
 17 32  1  0  0  0  0
 18 19  1  0  0  0  0
 18 33  1  0  0  0  0
 19 20  2  0  0  0  0
 19 34  1  0  0  0  0
 20 15  1  0  0  0  0
 20 35  1  0  0  0  0
 21 22  1  0  0  0  0
 21 36  1  0  0  0  0
 22 23  1  0  0  0  0
 22 37  1  0  0  0  0
 22 38  1  0  0  0  0
 23 24  1  0  0  0  0
 23 39  1  0  0  0  0
 23 40  1  0  0  0  0
 24 25  1  0  0  0  0
 24 41  1  0  0  0  0
 24 42  1  0  0  0  0
 25 43  1  0  0  0  0
 25 44  1  0  0  0  0
 25 45  1  0  0  0  0
M  END
>  <Mol_ID>
157

>  <Formula>
C17H20N2O5S

>  <MolWeight>
364.4161

>  <Cat>
S1287

>  <Name>
Bumetanide

>  <Synonyms>
N/A

>  <Target>
NKCC

>  <Form>
free base

>  <CAS>
28395-03-1

>  <URL>
http://selleckchem.com/products/Bumetanide.html

$$$$
