Butyl isobutyl phthalate
 OpenBabel08302521243D

 42 42  0  0  0  0  0  0  0  0999 V2000
    1.0548    0.1270   -0.3944 O   0  0  0  0  0  0  0  0  0  0  0  0
    2.8479    1.9667   -1.9273 O   0  0  0  0  0  0  0  0  0  0  0  0
    2.3651    0.6511    1.4446 O   0  0  0  0  0  0  0  0  0  0  0  0
    2.5781    0.8159   -3.8965 O   0  0  0  0  0  0  0  0  0  0  0  0
   -1.0641   -0.9088    0.1993 C   0  0  0  0  0  0  0  0  0  0  0  0
   -0.1919    0.3533    0.2758 C   0  0  0  0  0  0  0  0  0  0  0  0
    1.6581    3.7306   -3.2547 C   0  0  0  0  0  0  0  0  0  0  0  0
   -1.1814   -1.4086   -1.2468 C   0  0  0  0  0  0  0  0  0  0  0  0
   -0.5521   -2.0501    1.0795 C   0  0  0  0  0  0  0  0  0  0  0  0
    0.4903    3.7952   -2.2736 C   0  0  0  0  0  0  0  0  0  0  0  0
    2.9536    3.2285   -2.6168 C   0  0  0  0  0  0  0  0  0  0  0  0
    3.2382   -0.4243   -0.5223 C   0  0  0  0  0  0  0  0  0  0  0  0
    3.2705   -0.3306   -1.9207 C   0  0  0  0  0  0  0  0  0  0  0  0
    2.2177    0.2714    0.2902 C   0  0  0  0  0  0  0  0  0  0  0  0
   -0.7847    4.2815   -2.9477 C   0  0  0  0  0  0  0  0  0  0  0  0
    2.7830    0.8475   -2.6910 C   0  0  0  0  0  0  0  0  0  0  0  0
    4.0200   -1.3849    0.1398 C   0  0  0  0  0  0  0  0  0  0  0  0
    3.8918   -1.3629   -2.6469 C   0  0  0  0  0  0  0  0  0  0  0  0
    4.7093   -2.3512   -0.5965 C   0  0  0  0  0  0  0  0  0  0  0  0
    4.5871   -2.3768   -1.9849 C   0  0  0  0  0  0  0  0  0  0  0  0
   -2.0682   -0.6453    0.5549 H   0  0  0  0  0  0  0  0  0  0  0  0
   -0.0568    0.6805    1.3188 H   0  0  0  0  0  0  0  0  0  0  0  0
   -0.6886    1.1656   -0.2601 H   0  0  0  0  0  0  0  0  0  0  0  0
    1.8425    4.7298   -3.6649 H   0  0  0  0  0  0  0  0  0  0  0  0
    1.3840    3.0890   -4.1001 H   0  0  0  0  0  0  0  0  0  0  0  0
   -0.1987   -1.6008   -1.6894 H   0  0  0  0  0  0  0  0  0  0  0  0
   -1.7501   -2.3450   -1.2957 H   0  0  0  0  0  0  0  0  0  0  0  0
   -1.6947   -0.6692   -1.8688 H   0  0  0  0  0  0  0  0  0  0  0  0
   -0.4006   -1.7201    2.1119 H   0  0  0  0  0  0  0  0  0  0  0  0
   -1.2881   -2.8647    1.1019 H   0  0  0  0  0  0  0  0  0  0  0  0
    0.3882   -2.4664    0.7048 H   0  0  0  0  0  0  0  0  0  0  0  0
    0.3057    2.8076   -1.8378 H   0  0  0  0  0  0  0  0  0  0  0  0
    0.7427    4.4739   -1.4504 H   0  0  0  0  0  0  0  0  0  0  0  0
    3.2884    3.9569   -1.8686 H   0  0  0  0  0  0  0  0  0  0  0  0
    3.7516    3.1703   -3.3671 H   0  0  0  0  0  0  0  0  0  0  0  0
   -1.2009    3.5042   -3.5970 H   0  0  0  0  0  0  0  0  0  0  0  0
   -1.5398    4.5304   -2.1953 H   0  0  0  0  0  0  0  0  0  0  0  0
   -0.6053    5.1744   -3.5557 H   0  0  0  0  0  0  0  0  0  0  0  0
    4.0478   -1.4190    1.2272 H   0  0  0  0  0  0  0  0  0  0  0  0
    3.8399   -1.3725   -3.7337 H   0  0  0  0  0  0  0  0  0  0  0  0
    5.2964   -3.1108   -0.0857 H   0  0  0  0  0  0  0  0  0  0  0  0
    5.0548   -3.1766   -2.5567 H   0  0  0  0  0  0  0  0  0  0  0  0
  1  6  1  0  0  0  0
  1 14  1  0  0  0  0
  2 11  1  0  0  0  0
  2 16  1  0  0  0  0
  3 14  2  0  0  0  0
  4 16  2  0  0  0  0
  5  6  1  0  0  0  0
  5  8  1  0  0  0  0
  5  9  1  0  0  0  0
  5 21  1  0  0  0  0
  6 22  1  0  0  0  0
  6 23  1  0  0  0  0
  7 10  1  0  0  0  0
  7 11  1  0  0  0  0
  7 24  1  0  0  0  0
  7 25  1  0  0  0  0
  8 26  1  0  0  0  0
  8 27  1  0  0  0  0
  8 28  1  0  0  0  0
  9 29  1  0  0  0  0
  9 30  1  0  0  0  0
  9 31  1  0  0  0  0
 10 15  1  0  0  0  0
 10 32  1  0  0  0  0
 10 33  1  0  0  0  0
 11 34  1  0  0  0  0
 11 35  1  0  0  0  0
 12 13  2  0  0  0  0
 12 14  1  0  0  0  0
 12 17  1  0  0  0  0
 13 16  1  0  0  0  0
 13 18  1  0  0  0  0
 15 36  1  0  0  0  0
 15 37  1  0  0  0  0
 15 38  1  0  0  0  0
 17 19  2  0  0  0  0
 17 39  1  0  0  0  0
 18 20  2  0  0  0  0
 18 40  1  0  0  0  0
 19 20  1  0  0  0  0
 19 41  1  0  0  0  0
 20 42  1  0  0  0  0
M  END
>  <Mol_ID>
5077

>  <Formula>
C16H22O4

>  <MolWeight>
278.34348

>  <Cat>
S0553

>  <Name>
Butyl isobutyl phthalate

>  <Synonyms>
BIP

>  <Target>
Carbohydrate Metabolism

>  <Form>
free base

>  <CAS>
17851-53-5

>  <URL>
http://www.selleckchem.com/products/butyl-isobutyl-phthalate.html

$$$$
