Butyl benzyl phthalate
 OpenBabel08302520383D

 43 44  0  0  0  0  0  0  0  0999 V2000
    1.5873   -0.2392    0.1477 C   0  0  0  0  0  0  0  0  0  0  0  0
    0.9097   -1.2317   -0.5755 C   0  0  0  0  0  0  0  0  0  0  0  0
    2.9171   -0.4749    0.7496 C   0  0  0  0  0  0  0  0  0  0  0  0
    1.0093    1.0292    0.2928 C   0  0  0  0  0  0  0  0  0  0  0  0
   -0.2591   -0.9071   -1.2775 C   0  0  0  0  0  0  0  0  0  0  0  0
    1.3035   -2.6603   -0.5496 C   0  0  0  0  0  0  0  0  0  0  0  0
    3.6989   -1.0783   -0.1763 O   0  0  0  0  0  0  0  0  0  0  0  0
    3.2290   -0.1240    1.8759 O   0  0  0  0  0  0  0  0  0  0  0  0
   -0.1837    1.3316   -0.3686 C   0  0  0  0  0  0  0  0  0  0  0  0
   -0.7959    0.3779   -1.1826 C   0  0  0  0  0  0  0  0  0  0  0  0
    1.6492   -2.9784    0.7231 O   0  0  0  0  0  0  0  0  0  0  0  0
    1.1493   -3.4272   -1.4828 O   0  0  0  0  0  0  0  0  0  0  0  0
    4.9297   -1.6220    0.3057 C   0  0  0  0  0  0  0  0  0  0  0  0
    1.7829   -4.3744    1.0393 C   0  0  0  0  0  0  0  0  0  0  0  0
    6.1218   -0.7894   -0.0901 C   0  0  0  0  0  0  0  0  0  0  0  0
    0.5835   -4.8192    1.8749 C   0  0  0  0  0  0  0  0  0  0  0  0
    6.6652    0.1358    0.8117 C   0  0  0  0  0  0  0  0  0  0  0  0
    6.7419   -0.9652   -1.3359 C   0  0  0  0  0  0  0  0  0  0  0  0
   -0.7305   -4.7694    1.0920 C   0  0  0  0  0  0  0  0  0  0  0  0
    7.8401    0.8232    0.5006 C   0  0  0  0  0  0  0  0  0  0  0  0
    7.9168   -0.2750   -1.6461 C   0  0  0  0  0  0  0  0  0  0  0  0
   -1.9167   -5.1699    1.9548 C   0  0  0  0  0  0  0  0  0  0  0  0
    8.4730    0.6077   -0.7221 C   0  0  0  0  0  0  0  0  0  0  0  0
    1.4912    1.7836    0.9110 H   0  0  0  0  0  0  0  0  0  0  0  0
   -0.7654   -1.6606   -1.8776 H   0  0  0  0  0  0  0  0  0  0  0  0
   -0.6278    2.3189   -0.2641 H   0  0  0  0  0  0  0  0  0  0  0  0
   -1.7057    0.6260   -1.7258 H   0  0  0  0  0  0  0  0  0  0  0  0
    4.9147   -1.7937    1.3895 H   0  0  0  0  0  0  0  0  0  0  0  0
    5.0299   -2.6178   -0.1431 H   0  0  0  0  0  0  0  0  0  0  0  0
    1.9060   -4.9988    0.1476 H   0  0  0  0  0  0  0  0  0  0  0  0
    2.6971   -4.4776    1.6350 H   0  0  0  0  0  0  0  0  0  0  0  0
    0.7576   -5.8404    2.2329 H   0  0  0  0  0  0  0  0  0  0  0  0
    0.4977   -4.1700    2.7551 H   0  0  0  0  0  0  0  0  0  0  0  0
    6.1869    0.3056    1.7748 H   0  0  0  0  0  0  0  0  0  0  0  0
    6.3288   -1.6614   -2.0627 H   0  0  0  0  0  0  0  0  0  0  0  0
   -0.9135   -3.7610    0.7064 H   0  0  0  0  0  0  0  0  0  0  0  0
   -0.6658   -5.4417    0.2289 H   0  0  0  0  0  0  0  0  0  0  0  0
    8.2690    1.5160    1.2199 H   0  0  0  0  0  0  0  0  0  0  0  0
    8.4071   -0.4376   -2.6027 H   0  0  0  0  0  0  0  0  0  0  0  0
   -2.1240   -4.4020    2.7072 H   0  0  0  0  0  0  0  0  0  0  0  0
   -2.8118   -5.2837    1.3348 H   0  0  0  0  0  0  0  0  0  0  0  0
   -1.7348   -6.1178    2.4701 H   0  0  0  0  0  0  0  0  0  0  0  0
    9.3995    1.1268   -0.9538 H   0  0  0  0  0  0  0  0  0  0  0  0
  1  2  2  0  0  0  0
  1  3  1  0  0  0  0
  1  4  1  0  0  0  0
  2  5  1  0  0  0  0
  2  6  1  0  0  0  0
  3  7  1  0  0  0  0
  3  8  2  0  0  0  0
  4  9  2  0  0  0  0
  4 24  1  0  0  0  0
  5 10  2  0  0  0  0
  5 25  1  0  0  0  0
  6 11  1  0  0  0  0
  6 12  2  0  0  0  0
  7 13  1  0  0  0  0
  9 10  1  0  0  0  0
  9 26  1  0  0  0  0
 10 27  1  0  0  0  0
 11 14  1  0  0  0  0
 13 15  1  0  0  0  0
 13 28  1  0  0  0  0
 13 29  1  0  0  0  0
 14 16  1  0  0  0  0
 14 30  1  0  0  0  0
 14 31  1  0  0  0  0
 15 17  2  0  0  0  0
 15 18  1  0  0  0  0
 16 19  1  0  0  0  0
 16 32  1  0  0  0  0
 16 33  1  0  0  0  0
 17 20  1  0  0  0  0
 17 34  1  0  0  0  0
 18 21  2  0  0  0  0
 18 35  1  0  0  0  0
 19 22  1  0  0  0  0
 19 36  1  0  0  0  0
 19 37  1  0  0  0  0
 20 23  2  0  0  0  0
 20 38  1  0  0  0  0
 21 23  1  0  0  0  0
 21 39  1  0  0  0  0
 22 40  1  0  0  0  0
 22 41  1  0  0  0  0
 22 42  1  0  0  0  0
 23 43  1  0  0  0  0
M  END
>  <Mol_ID>
3446

>  <Formula>
C19H20O4

>  <MolWeight>
312.3597

>  <Cat>
S5822

>  <Name>
Butyl benzyl phthalate

>  <Synonyms>
BBP; 1,2-benzenedicarboxylic acid; butyl phenylmethyl ester

>  <Target>
Others

>  <Form>
Free Base

>  <CAS>
85-68-7

>  <URL>
http://www.selleckchem.com/products/butyl-benzyl-phthalate.html

$$$$
