BVT 2733
 OpenBabel08302521243D

 48 50  0  0  0  0  0  0  0  0999 V2000
   -1.0638    1.0324   -0.7568 S   0  0  0  0  0  0  0  0  0  0  0  0
    0.4632    4.1180    0.3666 S   0  0  0  0  0  0  0  0  0  0  0  0
    4.8450    3.7162    0.4836 O   0  0  0  0  0  0  0  0  0  0  0  0
   -1.9132    1.7172    0.1892 O   0  0  0  0  0  0  0  0  0  0  0  0
   -1.0375   -0.4177   -0.7763 O   0  0  0  0  0  0  0  0  0  0  0  0
    6.3852    4.1523   -1.1501 N   0  0  0  0  0  0  0  0  0  0  0  0
    9.2252    4.6768   -1.8000 N   0  0  0  0  0  0  0  0  0  0  0  0
    2.0263    2.9912   -1.3241 N   0  0  0  0  0  0  0  0  0  0  0  0
    0.5109    1.4818   -0.5239 N   0  0  0  0  0  0  0  0  0  0  0  0
    6.7540    4.7844   -2.4239 C   0  0  0  0  0  0  0  0  0  0  0  0
    7.4238    4.1038   -0.1162 C   0  0  0  0  0  0  0  0  0  0  0  0
    8.2114    4.5114   -2.8588 C   0  0  0  0  0  0  0  0  0  0  0  0
    8.8395    3.8425   -0.6474 C   0  0  0  0  0  0  0  0  0  0  0  0
    5.0734    4.0764   -0.6758 C   0  0  0  0  0  0  0  0  0  0  0  0
    9.4030    6.0779   -1.4217 C   0  0  0  0  0  0  0  0  0  0  0  0
    3.9466    4.5115   -1.6086 C   0  0  0  0  0  0  0  0  0  0  0  0
    2.6057    4.2081   -1.0086 C   0  0  0  0  0  0  0  0  0  0  0  0
    1.8954    4.9637   -0.0917 C   0  0  0  0  0  0  0  0  0  0  0  0
    0.9476    2.8026   -0.6049 C   0  0  0  0  0  0  0  0  0  0  0  0
   -1.4978    1.5243   -2.4332 C   0  0  0  0  0  0  0  0  0  0  0  0
   -2.4131    2.5666   -2.7149 C   0  0  0  0  0  0  0  0  0  0  0  0
   -1.0939    0.6555   -3.4656 C   0  0  0  0  0  0  0  0  0  0  0  0
   -2.9739    2.6252   -4.0079 C   0  0  0  0  0  0  0  0  0  0  0  0
   -2.8962    3.5691   -1.7164 C   0  0  0  0  0  0  0  0  0  0  0  0
   -1.6378    0.7630   -4.7476 C   0  0  0  0  0  0  0  0  0  0  0  0
   -2.5995    1.7292   -5.0116 C   0  0  0  0  0  0  0  0  0  0  0  0
    1.1838    0.8253   -0.9122 H   0  0  0  0  0  0  0  0  0  0  0  0
    6.0816    4.4280   -3.2104 H   0  0  0  0  0  0  0  0  0  0  0  0
    6.5850    5.8614   -2.3135 H   0  0  0  0  0  0  0  0  0  0  0  0
    7.3881    5.0665    0.4090 H   0  0  0  0  0  0  0  0  0  0  0  0
    7.1754    3.3297    0.6197 H   0  0  0  0  0  0  0  0  0  0  0  0
    8.2780    3.4761   -3.2192 H   0  0  0  0  0  0  0  0  0  0  0  0
    8.4650    5.1377   -3.7226 H   0  0  0  0  0  0  0  0  0  0  0  0
    8.9101    2.7899   -0.9521 H   0  0  0  0  0  0  0  0  0  0  0  0
    9.5641    3.9617    0.1672 H   0  0  0  0  0  0  0  0  0  0  0  0
    8.4813    6.5557   -1.0742 H   0  0  0  0  0  0  0  0  0  0  0  0
   10.1500    6.1680   -0.6252 H   0  0  0  0  0  0  0  0  0  0  0  0
    9.7822    6.6529   -2.2732 H   0  0  0  0  0  0  0  0  0  0  0  0
    4.0312    3.9785   -2.5625 H   0  0  0  0  0  0  0  0  0  0  0  0
    4.0397    5.5868   -1.7978 H   0  0  0  0  0  0  0  0  0  0  0  0
    2.1644    5.9075    0.3594 H   0  0  0  0  0  0  0  0  0  0  0  0
   -0.3967   -0.1559   -3.2655 H   0  0  0  0  0  0  0  0  0  0  0  0
   -3.7404    3.3658   -4.2307 H   0  0  0  0  0  0  0  0  0  0  0  0
   -3.1566    4.5092   -2.2164 H   0  0  0  0  0  0  0  0  0  0  0  0
   -3.7844    3.1940   -1.1952 H   0  0  0  0  0  0  0  0  0  0  0  0
   -2.1234    3.8311   -0.9964 H   0  0  0  0  0  0  0  0  0  0  0  0
   -1.3502    0.0611   -5.5269 H   0  0  0  0  0  0  0  0  0  0  0  0
   -3.0766    1.7800   -5.9863 H   0  0  0  0  0  0  0  0  0  0  0  0
  1  4  2  0  0  0  0
  1  5  2  0  0  0  0
  1  9  1  0  0  0  0
  1 20  1  0  0  0  0
  2 18  1  0  0  0  0
  2 19  1  0  0  0  0
  3 14  2  0  0  0  0
  6 10  1  0  0  0  0
  6 11  1  0  0  0  0
  6 14  1  0  0  0  0
  7 12  1  0  0  0  0
  7 13  1  0  0  0  0
  7 15  1  0  0  0  0
  8 17  1  0  0  0  0
  8 19  2  0  0  0  0
  9 19  1  0  0  0  0
  9 27  1  0  0  0  0
 10 12  1  0  0  0  0
 10 28  1  0  0  0  0
 10 29  1  0  0  0  0
 11 13  1  0  0  0  0
 11 30  1  0  0  0  0
 11 31  1  0  0  0  0
 12 32  1  0  0  0  0
 12 33  1  0  0  0  0
 13 34  1  0  0  0  0
 13 35  1  0  0  0  0
 14 16  1  0  0  0  0
 15 36  1  0  0  0  0
 15 37  1  0  0  0  0
 15 38  1  0  0  0  0
 16 17  1  0  0  0  0
 16 39  1  0  0  0  0
 16 40  1  0  0  0  0
 17 18  2  0  0  0  0
 18 41  1  0  0  0  0
 20 21  2  0  0  0  0
 20 22  1  0  0  0  0
 21 23  1  0  0  0  0
 21 24  1  0  0  0  0
 22 25  2  0  0  0  0
 22 42  1  0  0  0  0
 23 26  2  0  0  0  0
 23 43  1  0  0  0  0
 24 44  1  0  0  0  0
 24 45  1  0  0  0  0
 24 46  1  0  0  0  0
 25 26  1  0  0  0  0
 25 47  1  0  0  0  0
 26 48  1  0  0  0  0
M  END
>  <Mol_ID>
4972

>  <Formula>
C17H21ClN4O3S2

>  <MolWeight>
428.95664

>  <Cat>
S0209

>  <Name>
BVT 2733

>  <Synonyms>
N/A

>  <Target>
Dehydrogenase

>  <Form>
Free Base

>  <CAS>
376640-41-4

>  <URL>
http://www.selleckchem.com/products/bvt-2733.html

$$$$
