BW-A78U
 OpenBabel08302520403D

 31 33  0  0  0  0  0  0  0  0999 V2000
    0.2741    0.6704   -0.0077 C   0  0  0  0  0  0  0  0  0  0  0  0
    0.3336   -0.7129   -0.0945 C   0  0  0  0  0  0  0  0  0  0  0  0
    1.5790    1.0840   -0.0321 N   0  0  0  0  0  0  0  0  0  0  0  0
   -0.8261    1.4346    0.0798 N   0  0  0  0  0  0  0  0  0  0  0  0
   -0.8912   -1.4178   -0.0447 C   0  0  0  0  0  0  0  0  0  0  0  0
    1.6446   -1.1363   -0.2155 N   0  0  0  0  0  0  0  0  0  0  0  0
    2.0518    2.4559    0.0005 C   0  0  0  0  0  0  0  0  0  0  0  0
    2.3606   -0.0307   -0.1922 C   0  0  0  0  0  0  0  0  0  0  0  0
   -1.9365    0.6679    0.0937 C   0  0  0  0  0  0  0  0  0  0  0  0
   -2.0302   -0.6781    0.0467 N   0  0  0  0  0  0  0  0  0  0  0  0
   -0.9418   -2.7953   -0.0708 N   0  0  0  0  0  0  0  0  0  0  0  0
    2.2926    2.9450    1.4043 C   0  0  0  0  0  0  0  0  0  0  0  0
   -2.1827   -3.5265   -0.0658 C   0  0  0  0  0  0  0  0  0  0  0  0
    3.5387    2.7632    2.0161 C   0  0  0  0  0  0  0  0  0  0  0  0
    1.2838    3.5900    2.1307 C   0  0  0  0  0  0  0  0  0  0  0  0
    3.7773    3.1938    3.3191 C   0  0  0  0  0  0  0  0  0  0  0  0
    4.5324    2.1720    1.3377 F   0  0  0  0  0  0  0  0  0  0  0  0
    1.5188    4.0327    3.4344 C   0  0  0  0  0  0  0  0  0  0  0  0
    2.7631    3.8300    4.0320 C   0  0  0  0  0  0  0  0  0  0  0  0
    2.9707    2.5100   -0.5962 H   0  0  0  0  0  0  0  0  0  0  0  0
    1.3125    3.0836   -0.5111 H   0  0  0  0  0  0  0  0  0  0  0  0
    3.4385    0.0229   -0.2846 H   0  0  0  0  0  0  0  0  0  0  0  0
   -2.8822    1.1998    0.1470 H   0  0  0  0  0  0  0  0  0  0  0  0
   -0.0730   -3.2659   -0.2939 H   0  0  0  0  0  0  0  0  0  0  0  0
   -2.3180   -4.0439   -1.0174 H   0  0  0  0  0  0  0  0  0  0  0  0
   -2.1520   -4.2795    0.7284 H   0  0  0  0  0  0  0  0  0  0  0  0
   -3.0646   -2.9026    0.1136 H   0  0  0  0  0  0  0  0  0  0  0  0
    0.3028    3.7513    1.6841 H   0  0  0  0  0  0  0  0  0  0  0  0
    4.7527    3.0357    3.7698 H   0  0  0  0  0  0  0  0  0  0  0  0
    0.7283    4.5346    3.9879 H   0  0  0  0  0  0  0  0  0  0  0  0
    2.9402    4.1664    5.0510 H   0  0  0  0  0  0  0  0  0  0  0  0
  1  2  1  0  0  0  0
  1  3  1  0  0  0  0
  1  4  2  0  0  0  0
  2  5  2  0  0  0  0
  2  6  1  0  0  0  0
  3  7  1  0  0  0  0
  3  8  1  0  0  0  0
  4  9  1  0  0  0  0
  5 10  1  0  0  0  0
  5 11  1  0  0  0  0
  6  8  2  0  0  0  0
  7 12  1  0  0  0  0
  7 20  1  0  0  0  0
  7 21  1  0  0  0  0
  8 22  1  0  0  0  0
  9 10  2  0  0  0  0
  9 23  1  0  0  0  0
 11 13  1  0  0  0  0
 11 24  1  0  0  0  0
 12 14  2  0  0  0  0
 12 15  1  0  0  0  0
 13 25  1  0  0  0  0
 13 26  1  0  0  0  0
 13 27  1  0  0  0  0
 14 16  1  0  0  0  0
 14 17  1  0  0  0  0
 15 18  2  0  0  0  0
 15 28  1  0  0  0  0
 16 19  2  0  0  0  0
 16 29  1  0  0  0  0
 18 19  1  0  0  0  0
 18 30  1  0  0  0  0
 19 31  1  0  0  0  0
M  END
>  <Mol_ID>
3845

>  <Formula>
C13H12FN5

>  <MolWeight>
257.2662832

>  <Cat>
S6576

>  <Name>
BW-A78U

>  <Synonyms>
N/A

>  <Target>
PDE

>  <Form>
free base

>  <CAS>
101155-02-6

>  <URL>
http://www.selleck.cn/products/bw-a78u.html

$$$$
