BX-912.cdx
 OpenBabel08302521303D

 53 56  0  0  0  0  0  0  0  0999 V2000
   -2.4871    2.2969    1.2350 N   0  0  0  0  0  0  0  0  0  0  0  0
   -3.3397    3.1616    0.4364 C   0  0  0  0  0  0  0  0  0  0  0  0
   -2.4133    4.3156    0.0802 C   0  0  0  0  0  0  0  0  0  0  0  0
   -1.5843    4.4925    1.3467 C   0  0  0  0  0  0  0  0  0  0  0  0
   -1.4537    3.0783    1.8981 C   0  0  0  0  0  0  0  0  0  0  0  0
   -2.4442    0.9226    1.3355 C   0  0  0  0  0  0  0  0  0  0  0  0
   -1.5616    0.4021    2.0194 O   0  0  0  0  0  0  0  0  0  0  0  0
   -3.4006    0.2370    0.6330 N   0  0  0  0  0  0  0  0  0  0  0  0
   -3.4678   -1.1685    0.4569 C   0  0  0  0  0  0  0  0  0  0  0  0
   -2.5177   -2.0640    0.9697 C   0  0  0  0  0  0  0  0  0  0  0  0
   -2.5682   -3.4383    0.6959 C   0  0  0  0  0  0  0  0  0  0  0  0
   -3.6298   -3.9125   -0.0839 C   0  0  0  0  0  0  0  0  0  0  0  0
   -4.6028   -3.0430   -0.5793 C   0  0  0  0  0  0  0  0  0  0  0  0
   -4.5201   -1.6754   -0.3120 C   0  0  0  0  0  0  0  0  0  0  0  0
   -1.5483   -4.2784    1.1711 N   0  0  0  0  0  0  0  0  0  0  0  0
   -1.5762   -5.6494    1.3977 C   0  0  0  0  0  0  0  0  0  0  0  0
   -0.4284   -6.3454    1.2684 N   0  0  0  0  0  0  0  0  0  0  0  0
   -0.4919   -7.6900    1.3726 C   0  0  0  0  0  0  0  0  0  0  0  0
   -1.6768   -8.3411    1.6970 C   0  0  0  0  0  0  0  0  0  0  0  0
   -2.7646   -7.5405    1.9194 C   0  0  0  0  0  0  0  0  0  0  0  0
   -2.7455   -6.2136    1.7356 N   0  0  0  0  0  0  0  0  0  0  0  0
    0.6557   -8.4727    1.1142 N   0  0  0  0  0  0  0  0  0  0  0  0
    1.9644   -7.8248    1.2731 C   0  0  0  0  0  0  0  0  0  0  0  0
    2.2552   -7.4311    2.7361 C   0  0  0  0  0  0  0  0  0  0  0  0
    1.4596  -10.4438    4.6485 C   0  0  0  0  0  0  0  0  0  0  0  0
    2.3012   -9.9347    5.5193 N   0  0  0  0  0  0  0  0  0  0  0  0
    2.7408   -8.7594    4.9561 C   0  0  0  0  0  0  0  0  0  0  0  0
    2.1605   -8.5562    3.7228 C   0  0  0  0  0  0  0  0  0  0  0  0
    1.3464   -9.6519    3.5509 N   0  0  0  0  0  0  0  0  0  0  0  0
   -1.8299  -10.2113    1.9106 Br  0  0  0  0  0  0  0  0  0  0  0  0
   -4.1533    3.5052    1.0864 H   0  0  0  0  0  0  0  0  0  0  0  0
   -3.7577    2.6692   -0.4424 H   0  0  0  0  0  0  0  0  0  0  0  0
   -1.7577    4.0214   -0.7492 H   0  0  0  0  0  0  0  0  0  0  0  0
   -2.9477    5.2244   -0.2080 H   0  0  0  0  0  0  0  0  0  0  0  0
   -0.6084    4.9479    1.1510 H   0  0  0  0  0  0  0  0  0  0  0  0
   -2.1157    5.1283    2.0633 H   0  0  0  0  0  0  0  0  0  0  0  0
   -0.4681    2.6493    1.6866 H   0  0  0  0  0  0  0  0  0  0  0  0
   -1.6249    3.0490    2.9797 H   0  0  0  0  0  0  0  0  0  0  0  0
   -4.1321    0.7777    0.2024 H   0  0  0  0  0  0  0  0  0  0  0  0
   -1.7019   -1.7137    1.5910 H   0  0  0  0  0  0  0  0  0  0  0  0
   -3.6935   -4.9664   -0.3418 H   0  0  0  0  0  0  0  0  0  0  0  0
   -5.4113   -3.4353   -1.1914 H   0  0  0  0  0  0  0  0  0  0  0  0
   -5.2804   -1.0195   -0.7262 H   0  0  0  0  0  0  0  0  0  0  0  0
   -0.7446   -3.8451    1.5984 H   0  0  0  0  0  0  0  0  0  0  0  0
   -3.7169   -7.9401    2.2543 H   0  0  0  0  0  0  0  0  0  0  0  0
    0.5460   -8.8935    0.1913 H   0  0  0  0  0  0  0  0  0  0  0  0
    2.7231   -8.5529    0.9560 H   0  0  0  0  0  0  0  0  0  0  0  0
    2.0655   -6.9615    0.6048 H   0  0  0  0  0  0  0  0  0  0  0  0
    3.2665   -7.0087    2.7816 H   0  0  0  0  0  0  0  0  0  0  0  0
    1.5720   -6.6354    3.0539 H   0  0  0  0  0  0  0  0  0  0  0  0
    0.8979  -11.3596    4.7758 H   0  0  0  0  0  0  0  0  0  0  0  0
    3.4399   -8.1197    5.4750 H   0  0  0  0  0  0  0  0  0  0  0  0
    0.7536   -9.8096    2.7497 H   0  0  0  0  0  0  0  0  0  0  0  0
  1  2  1  0  0  0  0
  1  5  1  0  0  0  0
  1  6  1  0  0  0  0
  2  3  1  0  0  0  0
  2 31  1  0  0  0  0
  2 32  1  0  0  0  0
  3  4  1  0  0  0  0
  3 33  1  0  0  0  0
  3 34  1  0  0  0  0
  4  5  1  0  0  0  0
  4 35  1  0  0  0  0
  4 36  1  0  0  0  0
  5 37  1  0  0  0  0
  5 38  1  0  0  0  0
  6  7  2  0  0  0  0
  6  8  1  0  0  0  0
  8  9  1  0  0  0  0
  8 39  1  0  0  0  0
  9 10  2  0  0  0  0
  9 14  1  0  0  0  0
 10 11  1  0  0  0  0
 10 40  1  0  0  0  0
 11 12  2  0  0  0  0
 11 15  1  0  0  0  0
 12 13  1  0  0  0  0
 12 41  1  0  0  0  0
 13 14  2  0  0  0  0
 13 42  1  0  0  0  0
 14 43  1  0  0  0  0
 15 16  1  0  0  0  0
 15 44  1  0  0  0  0
 16 17  2  0  0  0  0
 16 21  1  0  0  0  0
 17 18  1  0  0  0  0
 18 19  2  0  0  0  0
 18 22  1  0  0  0  0
 19 20  1  0  0  0  0
 19 30  1  0  0  0  0
 20 21  2  0  0  0  0
 20 45  1  0  0  0  0
 22 23  1  0  0  0  0
 22 46  1  0  0  0  0
 23 24  1  0  0  0  0
 23 47  1  0  0  0  0
 23 48  1  0  0  0  0
 24 28  1  0  0  0  0
 24 49  1  0  0  0  0
 24 50  1  0  0  0  0
 25 26  2  0  0  0  0
 25 29  1  0  0  0  0
 25 51  1  0  0  0  0
 26 27  1  0  0  0  0
 27 28  2  0  0  0  0
 27 52  1  0  0  0  0
 28 29  1  0  0  0  0
 29 53  1  0  0  0  0
M  END
>  <Mol_ID>
539

>  <Formula>
C20H23BrN8O

>  <MolWeight>
471.35362

>  <Cat>
S1275

>  <Name>
BX-912

>  <Synonyms>
N/A

>  <Target>
PDK

>  <Form>
free base

>  <CAS>
702674-56-4

>  <URL>
http://selleckchem.com/products/bx-912.html

$$$$
