BYK204165
 OpenBabel08302521263D

 31 33  0  0  0  0  0  0  0  0999 V2000
    1.1666    0.1713   -0.3295 O   0  0  0  0  0  0  0  0  0  0  0  0
    4.1812    2.7053    1.3556 O   0  0  0  0  0  0  0  0  0  0  0  0
    0.7018   -2.9100   -1.1436 N   0  0  0  0  0  0  0  0  0  0  0  0
    3.1096    1.2979   -0.0567 N   0  0  0  0  0  0  0  0  0  0  0  0
    4.2065   -0.9149    1.2943 C   0  0  0  0  0  0  0  0  0  0  0  0
    3.1470   -1.0800    0.2638 C   0  0  0  0  0  0  0  0  0  0  0  0
    4.5661    0.3905    1.6723 C   0  0  0  0  0  0  0  0  0  0  0  0
    1.9638   -2.4222   -1.4003 C   0  0  0  0  0  0  0  0  0  0  0  0
    2.9079   -2.2541   -0.3621 C   0  0  0  0  0  0  0  0  0  0  0  0
    2.3697    0.1487   -0.1044 C   0  0  0  0  0  0  0  0  0  0  0  0
    4.8344   -1.9855    1.9542 C   0  0  0  0  0  0  0  0  0  0  0  0
    3.9662    1.5590    0.9811 C   0  0  0  0  0  0  0  0  0  0  0  0
    2.0528   -2.2014   -2.7626 C   0  0  0  0  0  0  0  0  0  0  0  0
    5.4995    0.6192    2.6934 C   0  0  0  0  0  0  0  0  0  0  0  0
    0.0185   -3.0528   -2.3300 C   0  0  0  0  0  0  0  0  0  0  0  0
    0.8288   -2.6044   -3.3457 C   0  0  0  0  0  0  0  0  0  0  0  0
    5.7917   -1.7565    2.9495 C   0  0  0  0  0  0  0  0  0  0  0  0
    0.1035   -3.2073    0.1420 C   0  0  0  0  0  0  0  0  0  0  0  0
    6.1160   -0.4566    3.3263 C   0  0  0  0  0  0  0  0  0  0  0  0
    2.5994    2.1188   -0.3520 H   0  0  0  0  0  0  0  0  0  0  0  0
    3.4940   -3.1373   -0.1317 H   0  0  0  0  0  0  0  0  0  0  0  0
    4.5927   -3.0195    1.7223 H   0  0  0  0  0  0  0  0  0  0  0  0
    2.9103   -1.7975   -3.2822 H   0  0  0  0  0  0  0  0  0  0  0  0
    5.7496    1.6355    2.9923 H   0  0  0  0  0  0  0  0  0  0  0  0
   -0.9917   -3.4372   -2.3453 H   0  0  0  0  0  0  0  0  0  0  0  0
    0.5653   -2.5678   -4.3945 H   0  0  0  0  0  0  0  0  0  0  0  0
    6.2784   -2.5985    3.4379 H   0  0  0  0  0  0  0  0  0  0  0  0
   -0.7977   -2.5974    0.2470 H   0  0  0  0  0  0  0  0  0  0  0  0
   -0.1521   -4.2704    0.1595 H   0  0  0  0  0  0  0  0  0  0  0  0
    0.7928   -2.9816    0.9563 H   0  0  0  0  0  0  0  0  0  0  0  0
    6.8492   -0.2804    4.1098 H   0  0  0  0  0  0  0  0  0  0  0  0
  1 10  2  0  0  0  0
  2 12  2  0  0  0  0
  3  8  1  0  0  0  0
  3 15  1  0  0  0  0
  3 18  1  0  0  0  0
  4 10  1  0  0  0  0
  4 12  1  0  0  0  0
  4 20  1  0  0  0  0
  5  6  1  0  0  0  0
  5  7  2  0  0  0  0
  5 11  1  0  0  0  0
  6  9  2  0  0  0  0
  6 10  1  0  0  0  0
  7 12  1  0  0  0  0
  7 14  1  0  0  0  0
  8  9  1  0  0  0  0
  8 13  2  0  0  0  0
  9 21  1  0  0  0  0
 11 17  2  0  0  0  0
 11 22  1  0  0  0  0
 13 16  1  0  0  0  0
 13 23  1  0  0  0  0
 14 19  2  0  0  0  0
 14 24  1  0  0  0  0
 15 16  2  0  0  0  0
 15 25  1  0  0  0  0
 16 26  1  0  0  0  0
 17 19  1  0  0  0  0
 17 27  1  0  0  0  0
 18 28  1  0  0  0  0
 18 29  1  0  0  0  0
 18 30  1  0  0  0  0
 19 31  1  0  0  0  0
M  END
>  <Mol_ID>
5266

>  <Formula>
C15H12N2O2

>  <MolWeight>
252.26798

>  <Cat>
S0519

>  <Name>
BYK204165

>  <Synonyms>
N/A

>  <Target>
PARP

>  <Form>
Free Base

>  <CAS>
1104546-89-5

>  <URL>
https://www.selleckchem.com/products/byk204165.html

$$$$
