C-170
 OpenBabel08302521313D

 37 38  0  0  0  0  0  0  0  0999 V2000
   -2.3559    4.0253    0.2992 O   0  0  0  0  0  0  0  0  0  0  0  0
   -0.3580    1.4837   -1.2087 O   0  0  0  0  0  0  0  0  0  0  0  0
   -5.5595    5.2578    0.8981 O   0  5  0  0  0  0  0  0  0  0  0  0
   -3.5741    6.0060    1.4995 O   0  0  0  0  0  0  0  0  0  0  0  0
    0.3178    3.3930   -0.0819 N   0  0  0  0  0  0  0  0  0  0  0  0
   -4.3286    5.2060    0.9337 N   0  3  0  0  0  0  0  0  0  0  0  0
    5.9684    2.3541   -0.1991 C   0  0  0  0  0  0  0  0  0  0  0  0
    6.7453    2.7192   -1.4742 C   0  0  0  0  0  0  0  0  0  0  0  0
    4.5027    2.7168   -0.2346 C   0  0  0  0  0  0  0  0  0  0  0  0
    6.7402    4.2167   -1.7950 C   0  0  0  0  0  0  0  0  0  0  0  0
    3.6694    2.1673   -1.2109 C   0  0  0  0  0  0  0  0  0  0  0  0
    3.9388    3.5832    0.7125 C   0  0  0  0  0  0  0  0  0  0  0  0
    1.7219    3.2388   -0.2239 C   0  0  0  0  0  0  0  0  0  0  0  0
    7.5252    4.5299   -3.0631 C   0  0  0  0  0  0  0  0  0  0  0  0
    2.2994    2.4413   -1.2143 C   0  0  0  0  0  0  0  0  0  0  0  0
    2.5634    3.8674    0.6984 C   0  0  0  0  0  0  0  0  0  0  0  0
   -0.6301    2.5158   -0.6038 C   0  0  0  0  0  0  0  0  0  0  0  0
   -2.0202    2.8800   -0.3783 C   0  0  0  0  0  0  0  0  0  0  0  0
   -3.1798    2.2303   -0.7911 C   0  0  0  0  0  0  0  0  0  0  0  0
   -3.7188    4.1065    0.2546 C   0  0  0  0  0  0  0  0  0  0  0  0
   -4.2730    3.0646   -0.4503 C   0  0  0  0  0  0  0  0  0  0  0  0
   -0.0156    4.0735    0.5877 H   0  0  0  0  0  0  0  0  0  0  0  0
    6.4522    2.8048    0.6763 H   0  0  0  0  0  0  0  0  0  0  0  0
    6.0388    1.2672   -0.0491 H   0  0  0  0  0  0  0  0  0  0  0  0
    7.7818    2.3802   -1.3512 H   0  0  0  0  0  0  0  0  0  0  0  0
    6.3386    2.1648   -2.3282 H   0  0  0  0  0  0  0  0  0  0  0  0
    5.7132    4.5716   -1.9341 H   0  0  0  0  0  0  0  0  0  0  0  0
    7.1680    4.7771   -0.9566 H   0  0  0  0  0  0  0  0  0  0  0  0
    4.0702    1.4928   -1.9644 H   0  0  0  0  0  0  0  0  0  0  0  0
    4.5603    4.0223    1.4901 H   0  0  0  0  0  0  0  0  0  0  0  0
    7.0305    4.1062   -3.9434 H   0  0  0  0  0  0  0  0  0  0  0  0
    7.5915    5.6135   -3.2063 H   0  0  0  0  0  0  0  0  0  0  0  0
    8.5438    4.1320   -3.0176 H   0  0  0  0  0  0  0  0  0  0  0  0
    1.7053    1.9954   -2.0065 H   0  0  0  0  0  0  0  0  0  0  0  0
    2.1635    4.5346    1.4572 H   0  0  0  0  0  0  0  0  0  0  0  0
   -3.2149    1.2863   -1.3197 H   0  0  0  0  0  0  0  0  0  0  0  0
   -5.3217    2.9133   -0.6656 H   0  0  0  0  0  0  0  0  0  0  0  0
  1 18  1  0  0  0  0
  1 20  1  0  0  0  0
  2 17  2  0  0  0  0
  3  6  1  0  0  0  0
  4  6  2  0  0  0  0
  5 13  1  0  0  0  0
  5 17  1  0  0  0  0
  5 22  1  0  0  0  0
  6 20  1  0  0  0  0
  7  8  1  0  0  0  0
  7  9  1  0  0  0  0
  7 23  1  0  0  0  0
  7 24  1  0  0  0  0
  8 10  1  0  0  0  0
  8 25  1  0  0  0  0
  8 26  1  0  0  0  0
  9 11  2  0  0  0  0
  9 12  1  0  0  0  0
 10 14  1  0  0  0  0
 10 27  1  0  0  0  0
 10 28  1  0  0  0  0
 11 15  1  0  0  0  0
 11 29  1  0  0  0  0
 12 16  2  0  0  0  0
 12 30  1  0  0  0  0
 13 15  2  0  0  0  0
 13 16  1  0  0  0  0
 14 31  1  0  0  0  0
 14 32  1  0  0  0  0
 14 33  1  0  0  0  0
 15 34  1  0  0  0  0
 16 35  1  0  0  0  0
 17 18  1  0  0  0  0
 18 19  2  0  0  0  0
 19 21  1  0  0  0  0
 19 36  1  0  0  0  0
 20 21  2  0  0  0  0
 21 37  1  0  0  0  0
M  CHG  2   3  -1   6   1
M  END
>  <Mol_ID>
6073

>  <Formula>
C15H16N2O4

>  <MolWeight>
288.29854

>  <Cat>
E0127

>  <Name>
C-170

>  <Synonyms>
N/A

>  <Target>
STING

>  <Form>
Free Base

>  <CAS>
346691-38-1

>  <URL>
http://www.selleckchem.com/products/c-170.html

$$$$
