C25-140
 OpenBabel08302521353D

 65 69  0  0  0  0  0  0  0  0999 V2000
    7.9483    3.3815    4.2016 C   0  0  0  0  0  0  0  0  0  0  0  0
    7.3481    2.1988    3.7750 C   0  0  0  0  0  0  0  0  0  0  0  0
    6.1681    2.2397    3.0281 C   0  0  0  0  0  0  0  0  0  0  0  0
    5.5638    3.4664    2.7186 C   0  0  0  0  0  0  0  0  0  0  0  0
    6.2153    4.6517    3.0961 C   0  0  0  0  0  0  0  0  0  0  0  0
    7.3946    4.6083    3.8425 C   0  0  0  0  0  0  0  0  0  0  0  0
    4.1674    3.5135    2.1189 C   0  0  0  0  0  0  0  0  0  0  0  0
    3.1167    3.8799    3.2001 C   0  0  0  0  0  0  0  0  0  0  0  0
    2.9536    2.8249    4.3165 C   0  0  0  0  0  0  0  0  0  0  0  0
    1.9090    1.7377    4.0597 C   0  0  0  0  0  0  0  0  0  0  0  0
    0.6385    2.2982    3.6188 N   0  0  0  0  0  0  0  0  0  0  0  0
    0.7483    3.1548    2.4322 C   0  0  0  0  0  0  0  0  0  0  0  0
    1.7562    4.2937    2.6148 C   0  0  0  0  0  0  0  0  0  0  0  0
   -0.6257    1.8498    4.0296 C   0  0  0  0  0  0  0  0  0  0  0  0
   -1.6556    2.3069    3.5258 O   0  0  0  0  0  0  0  0  0  0  0  0
   -0.7187    0.7725    5.1387 C   0  0  0  0  0  0  0  0  0  0  0  0
   -2.1839    0.3537    5.4209 C   0  0  0  0  0  0  0  0  0  0  0  0
   -2.4408   -0.6947    6.5025 C   0  0  0  0  0  0  0  0  0  0  0  0
   -2.6364   -0.4214    7.8775 C   0  0  0  0  0  0  0  0  0  0  0  0
   -2.9150   -1.5150    8.5739 N   0  0  0  0  0  0  0  0  0  0  0  0
   -3.0562   -2.5411    7.6816 N   0  0  0  0  0  0  0  0  0  0  0  0
   -2.6893   -2.0772    6.4018 C   0  0  0  0  0  0  0  0  0  0  0  0
   -2.6341    0.8781    8.5963 C   0  0  0  0  0  0  0  0  0  0  0  0
   -3.4606   -3.8078    8.2668 C   0  0  0  0  0  0  0  0  0  0  0  0
   -3.8919   -4.9314    7.7072 N   0  0  0  0  0  0  0  0  0  0  0  0
   -3.8269   -6.0199    8.6663 N   0  0  0  0  0  0  0  0  0  0  0  0
   -2.9615   -5.9830    9.7561 C   0  0  0  0  0  0  0  0  0  0  0  0
   -2.5389   -4.7010   10.1613 C   0  0  0  0  0  0  0  0  0  0  0  0
   -3.3516   -3.7056    9.7839 C   0  0  0  0  0  0  0  0  0  0  0  0
   -4.2302   -7.3565    8.6746 C   0  0  0  0  0  0  0  0  0  0  0  0
   -3.2797   -8.0593    9.2791 N   0  0  0  0  0  0  0  0  0  0  0  0
   -2.5273   -7.1937   10.0216 N   0  0  0  0  0  0  0  0  0  0  0  0
   -5.6067   -7.9187    8.6435 C   0  0  0  0  0  0  0  0  0  0  0  0
   -2.5902   -2.9464    5.2012 C   0  0  0  0  0  0  0  0  0  0  0  0
    8.8429    3.3461    4.8180 H   0  0  0  0  0  0  0  0  0  0  0  0
    7.7835    1.2418    4.0517 H   0  0  0  0  0  0  0  0  0  0  0  0
    5.6960    1.3033    2.7402 H   0  0  0  0  0  0  0  0  0  0  0  0
    5.7837    5.6191    2.8494 H   0  0  0  0  0  0  0  0  0  0  0  0
    7.8673    5.5319    4.1668 H   0  0  0  0  0  0  0  0  0  0  0  0
    4.1735    4.2740    1.3228 H   0  0  0  0  0  0  0  0  0  0  0  0
    3.9238    2.5641    1.6296 H   0  0  0  0  0  0  0  0  0  0  0  0
    3.5091    4.7843    3.6880 H   0  0  0  0  0  0  0  0  0  0  0  0
    3.9067    2.3455    4.5553 H   0  0  0  0  0  0  0  0  0  0  0  0
    2.6592    3.3660    5.2247 H   0  0  0  0  0  0  0  0  0  0  0  0
    2.2512    1.0518    3.2772 H   0  0  0  0  0  0  0  0  0  0  0  0
    1.7783    1.1547    4.9717 H   0  0  0  0  0  0  0  0  0  0  0  0
   -0.2233    3.5831    2.1627 H   0  0  0  0  0  0  0  0  0  0  0  0
    1.0573    2.5119    1.5980 H   0  0  0  0  0  0  0  0  0  0  0  0
    1.3143    5.0253    3.3050 H   0  0  0  0  0  0  0  0  0  0  0  0
    1.8922    4.8249    1.6644 H   0  0  0  0  0  0  0  0  0  0  0  0
   -0.1464   -0.1035    4.8172 H   0  0  0  0  0  0  0  0  0  0  0  0
   -0.2651    1.1816    6.0487 H   0  0  0  0  0  0  0  0  0  0  0  0
   -2.7420    1.2555    5.7109 H   0  0  0  0  0  0  0  0  0  0  0  0
   -2.6522    0.0158    4.4899 H   0  0  0  0  0  0  0  0  0  0  0  0
   -3.6562    1.2700    8.6357 H   0  0  0  0  0  0  0  0  0  0  0  0
   -2.2817    0.7591    9.6275 H   0  0  0  0  0  0  0  0  0  0  0  0
   -1.9955    1.6168    8.1062 H   0  0  0  0  0  0  0  0  0  0  0  0
   -1.4685   -4.5836   10.0999 H   0  0  0  0  0  0  0  0  0  0  0  0
   -4.3742   -3.6715   10.1375 H   0  0  0  0  0  0  0  0  0  0  0  0
   -5.6353   -8.8581    8.0781 H   0  0  0  0  0  0  0  0  0  0  0  0
   -5.8695   -8.2057    9.6766 H   0  0  0  0  0  0  0  0  0  0  0  0
   -6.3871   -7.2448    8.2954 H   0  0  0  0  0  0  0  0  0  0  0  0
   -1.9417   -3.8064    5.3884 H   0  0  0  0  0  0  0  0  0  0  0  0
   -3.5751   -3.2873    4.8795 H   0  0  0  0  0  0  0  0  0  0  0  0
   -2.1431   -2.3877    4.3691 H   0  0  0  0  0  0  0  0  0  0  0  0
  1  2  2  0  0  0  0
  1 35  1  0  0  0  0
  2  3  1  0  0  0  0
  2 36  1  0  0  0  0
  3  4  2  0  0  0  0
  3 37  1  0  0  0  0
  4  5  1  0  0  0  0
  4  7  1  0  0  0  0
  5  6  2  0  0  0  0
  5 38  1  0  0  0  0
  6  1  1  0  0  0  0
  6 39  1  0  0  0  0
  7  8  1  0  0  0  0
  7 40  1  0  0  0  0
  7 41  1  0  0  0  0
  8  9  1  0  0  0  0
  8 42  1  0  0  0  0
  9 10  1  0  0  0  0
  9 43  1  0  0  0  0
  9 44  1  0  0  0  0
 10 11  1  0  0  0  0
 10 45  1  0  0  0  0
 10 46  1  0  0  0  0
 11 12  1  0  0  0  0
 11 14  1  0  0  0  0
 12 13  1  0  0  0  0
 12 47  1  0  0  0  0
 12 48  1  0  0  0  0
 13  8  1  0  0  0  0
 13 49  1  0  0  0  0
 13 50  1  0  0  0  0
 14 15  2  0  0  0  0
 14 16  1  0  0  0  0
 16 17  1  0  0  0  0
 16 51  1  0  0  0  0
 16 52  1  0  0  0  0
 17 18  1  0  0  0  0
 17 53  1  0  0  0  0
 17 54  1  0  0  0  0
 18 19  1  0  0  0  0
 19 20  2  0  0  0  0
 19 23  1  0  0  0  0
 20 21  1  0  0  0  0
 21 22  1  0  0  0  0
 21 24  1  0  0  0  0
 22 18  2  0  0  0  0
 22 34  1  0  0  0  0
 23 55  1  0  0  0  0
 23 56  1  0  0  0  0
 23 57  1  0  0  0  0
 24 25  2  0  0  0  0
 25 26  1  0  0  0  0
 26 27  1  0  0  0  0
 26 30  1  0  0  0  0
 27 28  1  0  0  0  0
 28 29  2  0  0  0  0
 28 58  1  0  0  0  0
 29 24  1  0  0  0  0
 29 59  1  0  0  0  0
 30 31  2  0  0  0  0
 30 33  1  0  0  0  0
 31 32  1  0  0  0  0
 32 27  2  0  0  0  0
 33 60  1  0  0  0  0
 33 61  1  0  0  0  0
 33 62  1  0  0  0  0
 34 63  1  0  0  0  0
 34 64  1  0  0  0  0
 34 65  1  0  0  0  0
M  END
>  <Mol_ID>
6699

>  <Formula>
C26H31N7O

>  <MolWeight>
457.57064

>  <Cat>
S6679

>  <Name>
C25-140

>  <Synonyms>
N/A

>  <Target>
NF-¦ÊB,Others

>  <Form>
Free base

>  <CAS>
1358099-18-9

>  <URL>
http://www.selleckchem.com/products/c25-140.html

$$$$
