CA-4948.cdx
 OpenBabel08302520433D

 50 54  0  0  0  0  0  0  0  0999 V2000
   -0.6823    1.0080    0.1671 C   0  0  0  0  0  0  0  0  0  0  0  0
    0.4823    0.3166   -0.1071 C   0  0  0  0  0  0  0  0  0  0  0  0
    0.5025   -0.9999   -0.3966 N   0  0  0  0  0  0  0  0  0  0  0  0
   -0.7309   -1.5772   -0.3716 C   0  0  0  0  0  0  0  0  0  0  0  0
   -1.9623   -0.9461   -0.0972 C   0  0  0  0  0  0  0  0  0  0  0  0
   -1.9490    0.4274    0.1650 C   0  0  0  0  0  0  0  0  0  0  0  0
   -0.3346    2.2982    0.4297 O   0  0  0  0  0  0  0  0  0  0  0  0
    1.0357    2.3116    0.2825 C   0  0  0  0  0  0  0  0  0  0  0  0
    1.5606    1.1510   -0.0452 N   0  0  0  0  0  0  0  0  0  0  0  0
    1.6560    3.4947    0.4665 N   0  0  0  0  0  0  0  0  0  0  0  0
   -3.2081   -1.6327   -0.0768 N   0  0  0  0  0  0  0  0  0  0  0  0
   -3.3380   -3.0120   -0.0153 C   0  0  0  0  0  0  0  0  0  0  0  0
   -4.7198   -3.5843   -0.0386 C   0  0  0  0  0  0  0  0  0  0  0  0
   -2.3932   -3.7959    0.0810 O   0  0  0  0  0  0  0  0  0  0  0  0
   -5.7866   -2.7389   -0.1295 N   0  0  0  0  0  0  0  0  0  0  0  0
   -7.0200   -3.3244   -0.1786 C   0  0  0  0  0  0  0  0  0  0  0  0
   -7.1908   -4.7143   -0.0925 C   0  0  0  0  0  0  0  0  0  0  0  0
   -6.0856   -5.5469   -0.0030 C   0  0  0  0  0  0  0  0  0  0  0  0
   -4.8282   -4.9738    0.0163 C   0  0  0  0  0  0  0  0  0  0  0  0
   -8.1817   -2.4347   -0.3617 C   0  0  0  0  0  0  0  0  0  0  0  0
   -9.3480   -2.8519   -1.0229 C   0  0  0  0  0  0  0  0  0  0  0  0
  -10.4450   -2.0011   -1.1442 C   0  0  0  0  0  0  0  0  0  0  0  0
  -10.3590   -0.7231   -0.6240 C   0  0  0  0  0  0  0  0  0  0  0  0
   -9.2613   -0.2727    0.0037 N   0  0  0  0  0  0  0  0  0  0  0  0
   -8.2081   -1.1282    0.1181 C   0  0  0  0  0  0  0  0  0  0  0  0
  -11.4566    0.1302   -0.6781 N   0  0  0  0  0  0  0  0  0  0  0  0
    3.0940    3.6446    0.2371 C   0  0  0  0  0  0  0  0  0  0  0  0
    3.7909    4.1215    1.5228 C   0  0  0  0  0  0  0  0  0  0  0  0
    3.1626    5.2980    2.0645 O   0  0  0  0  0  0  0  0  0  0  0  0
    1.7827    5.0320    2.3656 C   0  0  0  0  0  0  0  0  0  0  0  0
    1.0027    4.6321    1.1041 C   0  0  0  0  0  0  0  0  0  0  0  0
   -0.6802   -2.6320   -0.6259 H   0  0  0  0  0  0  0  0  0  0  0  0
   -2.8324    1.0086    0.3908 H   0  0  0  0  0  0  0  0  0  0  0  0
   -4.0703   -1.0989   -0.0293 H   0  0  0  0  0  0  0  0  0  0  0  0
   -8.1789   -5.1653   -0.0955 H   0  0  0  0  0  0  0  0  0  0  0  0
   -6.2019   -6.6257    0.0425 H   0  0  0  0  0  0  0  0  0  0  0  0
   -3.9441   -5.6034    0.0731 H   0  0  0  0  0  0  0  0  0  0  0  0
   -9.4260   -3.8453   -1.4568 H   0  0  0  0  0  0  0  0  0  0  0  0
  -11.3523   -2.3421   -1.6313 H   0  0  0  0  0  0  0  0  0  0  0  0
   -7.3556   -0.7121    0.6498 H   0  0  0  0  0  0  0  0  0  0  0  0
  -11.8457    0.1993   -1.6102 H   0  0  0  0  0  0  0  0  0  0  0  0
  -11.1604    1.0307   -0.3121 H   0  0  0  0  0  0  0  0  0  0  0  0
    3.2312    4.4062   -0.5409 H   0  0  0  0  0  0  0  0  0  0  0  0
    3.5719    2.7259   -0.1221 H   0  0  0  0  0  0  0  0  0  0  0  0
    3.7902    3.3365    2.2877 H   0  0  0  0  0  0  0  0  0  0  0  0
    4.8338    4.3778    1.3085 H   0  0  0  0  0  0  0  0  0  0  0  0
    1.3529    5.9429    2.7934 H   0  0  0  0  0  0  0  0  0  0  0  0
    1.7307    4.2458    3.1286 H   0  0  0  0  0  0  0  0  0  0  0  0
    1.0026    5.4672    0.3941 H   0  0  0  0  0  0  0  0  0  0  0  0
   -0.0389    4.4332    1.3776 H   0  0  0  0  0  0  0  0  0  0  0  0
  1  2  1  0  0  0  0
  1  7  1  0  0  0  0
  2  3  2  0  0  0  0
  3  4  1  0  0  0  0
  4  5  2  0  0  0  0
  4 32  1  0  0  0  0
  5  6  1  0  0  0  0
  5 11  1  0  0  0  0
  6  1  2  0  0  0  0
  6 33  1  0  0  0  0
  7  8  1  0  0  0  0
  8  9  2  0  0  0  0
  8 10  1  0  0  0  0
  9  2  1  0  0  0  0
 10 27  1  0  0  0  0
 11 12  1  0  0  0  0
 11 34  1  0  0  0  0
 12 13  1  0  0  0  0
 12 14  2  0  0  0  0
 13 15  2  0  0  0  0
 15 16  1  0  0  0  0
 16 17  2  0  0  0  0
 16 20  1  0  0  0  0
 17 18  1  0  0  0  0
 17 35  1  0  0  0  0
 18 19  2  0  0  0  0
 18 36  1  0  0  0  0
 19 13  1  0  0  0  0
 19 37  1  0  0  0  0
 20 21  2  0  0  0  0
 21 22  1  0  0  0  0
 21 38  1  0  0  0  0
 22 23  2  0  0  0  0
 22 39  1  0  0  0  0
 23 24  1  0  0  0  0
 23 26  1  0  0  0  0
 24 25  2  0  0  0  0
 25 20  1  0  0  0  0
 25 40  1  0  0  0  0
 26 41  1  0  0  0  0
 26 42  1  0  0  0  0
 27 28  1  0  0  0  0
 27 43  1  0  0  0  0
 27 44  1  0  0  0  0
 28 29  1  0  0  0  0
 28 45  1  0  0  0  0
 28 46  1  0  0  0  0
 29 30  1  0  0  0  0
 30 31  1  0  0  0  0
 30 47  1  0  0  0  0
 30 48  1  0  0  0  0
 31 10  1  0  0  0  0
 31 49  1  0  0  0  0
 31 50  1  0  0  0  0
M  END
>  <Mol_ID>
4178

>  <Formula>
C21H19N7O3

>  <MolWeight>
417.42066

>  <Cat>
S8562

>  <Name>
IRAK4-IN-2

>  <Synonyms>
N/A

>  <Target>
IL Receptor,IRAK,TLR

>  <Form>
free base

>  <CAS>
1801343-74-7

>  <URL>
https://www.selleckchem.com/products/irak4-in-2.html

$$$$
