Cafestol
 OpenBabel08302521343D

 51 55  0  0  0  0  0  0  0  0999 V2000
    5.3521    1.0027   -0.1775 O   0  0  0  0  0  0  0  0  0  0  0  0
    4.0550    0.9600    0.2014 C   0  0  0  0  0  0  0  0  0  0  0  0
    3.2140    1.1849   -0.8564 C   0  0  0  0  0  0  0  0  0  0  0  0
    4.0430    1.3286   -1.9894 C   0  0  0  0  0  0  0  0  0  0  0  0
    5.3392    1.2291   -1.5225 C   0  0  0  0  0  0  0  0  0  0  0  0
    3.6914    0.6137    1.5889 C   0  0  0  0  0  0  0  0  0  0  0  0
    2.2228    0.1159    1.6859 C   0  0  0  0  0  0  0  0  0  0  0  0
    1.3820   -0.0234    0.3419 C   0  0  1  0  0  0  0  0  0  0  0  0
   -0.1606    0.0925    0.7027 C   0  0  1  0  0  0  0  0  0  0  0  0
   -1.1285    0.4180   -0.4833 C   0  0  2  0  0  0  0  0  0  0  0  0
   -0.5499    1.3663   -1.5470 C   0  0  0  0  0  0  0  0  0  0  0  0
    0.9046    1.1245   -1.9095 C   0  0  0  0  0  0  0  0  0  0  0  0
    1.7423    1.1502   -0.6357 C   0  0  2  0  0  0  0  0  0  0  0  0
   -2.4245    1.0978    0.0992 C   0  0  0  0  0  0  0  0  0  0  0  0
   -3.5078    0.0228    0.0685 C   0  0  1  0  0  0  0  0  0  0  0  0
   -2.7104   -1.2887   -0.0421 C   0  0  2  0  0  0  0  0  0  0  0  0
   -2.0279   -1.7244    1.2625 C   0  0  0  0  0  0  0  0  0  0  0  0
   -0.6762   -1.0690    1.6033 C   0  0  0  0  0  0  0  0  0  0  0  0
   -1.6448   -0.9060   -1.0723 C   0  0  0  0  0  0  0  0  0  0  0  0
   -4.5060    0.1466    1.2278 C   0  0  0  0  0  0  0  0  0  0  0  0
   -5.4827   -0.8886    1.1352 O   0  0  0  0  0  0  0  0  0  0  0  0
    1.7636   -1.3874   -0.3059 C   0  0  0  0  0  0  0  0  0  0  0  0
   -4.3091    0.1507   -1.1279 O   0  0  0  0  0  0  0  0  0  0  0  0
    3.7528    1.4656   -3.0216 H   0  0  0  0  0  0  0  0  0  0  0  0
    6.3083    1.2706   -1.9927 H   0  0  0  0  0  0  0  0  0  0  0  0
    4.3688   -0.1549    1.9811 H   0  0  0  0  0  0  0  0  0  0  0  0
    3.8096    1.4993    2.2253 H   0  0  0  0  0  0  0  0  0  0  0  0
    1.7031    0.8043    2.3666 H   0  0  0  0  0  0  0  0  0  0  0  0
    2.2246   -0.8462    2.2151 H   0  0  0  0  0  0  0  0  0  0  0  0
   -0.2023    0.9881    1.3417 H   0  0  0  0  0  0  0  0  0  0  0  0
   -1.1602    1.3372   -2.4586 H   0  0  0  0  0  0  0  0  0  0  0  0
   -0.6202    2.3995   -1.1780 H   0  0  0  0  0  0  0  0  0  0  0  0
    1.0159    0.1888   -2.4673 H   0  0  0  0  0  0  0  0  0  0  0  0
    1.2247    1.9217   -2.5907 H   0  0  0  0  0  0  0  0  0  0  0  0
    1.5063    2.0928   -0.1179 H   0  0  0  0  0  0  0  0  0  0  0  0
   -2.7278    1.9733   -0.4875 H   0  0  0  0  0  0  0  0  0  0  0  0
   -2.2514    1.4528    1.1218 H   0  0  0  0  0  0  0  0  0  0  0  0
   -3.3401   -2.0997   -0.4259 H   0  0  0  0  0  0  0  0  0  0  0  0
   -2.7047   -1.6180    2.1164 H   0  0  0  0  0  0  0  0  0  0  0  0
   -1.8532   -2.8073    1.1937 H   0  0  0  0  0  0  0  0  0  0  0  0
   -0.7228   -0.7038    2.6380 H   0  0  0  0  0  0  0  0  0  0  0  0
    0.0566   -1.8787    1.6576 H   0  0  0  0  0  0  0  0  0  0  0  0
   -0.8807   -1.6785   -1.1769 H   0  0  0  0  0  0  0  0  0  0  0  0
   -2.0920   -0.7631   -2.0634 H   0  0  0  0  0  0  0  0  0  0  0  0
   -5.0415    1.1015    1.1627 H   0  0  0  0  0  0  0  0  0  0  0  0
   -4.0302    0.0970    2.2107 H   0  0  0  0  0  0  0  0  0  0  0  0
   -5.7293   -0.9081    0.1876 H   0  0  0  0  0  0  0  0  0  0  0  0
    1.2779   -1.5465   -1.2699 H   0  0  0  0  0  0  0  0  0  0  0  0
    1.5176   -2.2440    0.3253 H   0  0  0  0  0  0  0  0  0  0  0  0
    2.8424   -1.4621   -0.4844 H   0  0  0  0  0  0  0  0  0  0  0  0
   -3.8474    0.7274   -1.7600 H   0  0  0  0  0  0  0  0  0  0  0  0
  1  2  1  0  0  0  0
  1  5  1  0  0  0  0
  2  3  2  0  0  0  0
  3  4  1  0  0  0  0
  4  5  2  0  0  0  0
  4 24  1  0  0  0  0
  5 25  1  0  0  0  0
  6  7  1  0  0  0  0
  6  2  1  0  0  0  0
  6 26  1  0  0  0  0
  6 27  1  0  0  0  0
  7  8  1  0  0  0  0
  7 28  1  0  0  0  0
  7 29  1  0  0  0  0
  8  9  1  0  0  0  0
  8 13  1  0  0  0  0
  8 22  1  6  0  0  0
  9 10  1  0  0  0  0
  9 18  1  0  0  0  0
  9 30  1  1  0  0  0
 10 11  1  6  0  0  0
 10 19  1  0  0  0  0
 11 12  1  0  0  0  0
 11 31  1  0  0  0  0
 11 32  1  0  0  0  0
 12 33  1  0  0  0  0
 12 34  1  0  0  0  0
 13 12  1  0  0  0  0
 13  3  1  0  0  0  0
 13 35  1  1  0  0  0
 14 15  1  0  0  0  0
 14 10  1  0  0  0  0
 14 36  1  0  0  0  0
 14 37  1  0  0  0  0
 15 16  1  0  0  0  0
 15 20  1  0  0  0  0
 15 23  1  6  0  0  0
 16 17  1  0  0  0  0
 16 19  1  0  0  0  0
 16 38  1  6  0  0  0
 17 18  1  0  0  0  0
 17 39  1  0  0  0  0
 17 40  1  0  0  0  0
 18 41  1  0  0  0  0
 18 42  1  0  0  0  0
 19 43  1  0  0  0  0
 19 44  1  0  0  0  0
 20 21  1  0  0  0  0
 20 45  1  0  0  0  0
 20 46  1  0  0  0  0
 21 47  1  0  0  0  0
 22 48  1  0  0  0  0
 22 49  1  0  0  0  0
 22 50  1  0  0  0  0
 23 51  1  0  0  0  0
M  END
>  <Mol_ID>
6548

>  <Formula>
C20H28O3

>  <MolWeight>
316.43452

>  <Cat>
S0947

>  <Name>
Cafestol

>  <Synonyms>
N/A

>  <Target>
Apoptosis related,Immunology & Inflammation related,PI3K,ROS

>  <Form>
free base

>  <CAS>
469-83-0

>  <URL>
http://www.selleckchem.com/products/cafestol.html

$$$$
