CAL-1011.cdx
 OpenBabel08302521393D

 49 53  0  0  0  0  0  0  0  0999 V2000
   -2.2625   -0.6242   -0.0912 C   0  0  0  0  0  0  0  0  0  0  0  0
   -2.2456    0.7657   -0.1360 C   0  0  0  0  0  0  0  0  0  0  0  0
   -1.0203    1.4451   -0.1957 C   0  0  0  0  0  0  0  0  0  0  0  0
    0.1886    0.7421   -0.2144 C   0  0  0  0  0  0  0  0  0  0  0  0
    0.1567   -0.6441   -0.1697 C   0  0  0  0  0  0  0  0  0  0  0  0
   -1.0644   -1.3296   -0.1103 C   0  0  0  0  0  0  0  0  0  0  0  0
    1.3868    1.4739   -0.2208 N   0  0  0  0  0  0  0  0  0  0  0  0
    2.5387    0.8468   -0.1401 C   0  0  0  0  0  0  0  0  0  0  0  0
    2.5945   -0.5301   -0.1533 N   0  0  0  0  0  0  0  0  0  0  0  0
    1.4672   -1.3524   -0.1906 C   0  0  0  0  0  0  0  0  0  0  0  0
   -1.1248   -2.6824   -0.0560 F   0  0  0  0  0  0  0  0  0  0  0  0
    1.4649   -2.5760   -0.2239 O   0  0  0  0  0  0  0  0  0  0  0  0
    3.8282   -1.2193   -0.2630 C   0  0  0  0  0  0  0  0  0  0  0  0
    3.8639    1.7079    0.0057 C   0  0  1  0  0  0  0  0  0  0  0  0
    4.6896    1.5460   -1.2264 N   0  0  0  0  0  0  0  0  0  0  0  0
    5.7577    2.4327   -1.4393 C   0  0  0  0  0  0  0  0  0  0  0  0
    6.8924    2.7272   -0.6299 C   0  0  0  0  0  0  0  0  0  0  0  0
    7.5107    3.9177   -0.9172 C   0  0  0  0  0  0  0  0  0  0  0  0
    7.3539    4.7165   -1.9750 N   0  0  0  0  0  0  0  0  0  0  0  0
    6.5148    4.1375   -2.8500 C   0  0  0  0  0  0  0  0  0  0  0  0
    5.6746    3.1049   -2.6243 N   0  0  0  0  0  0  0  0  0  0  0  0
    7.5695    2.0791    0.3894 N   0  0  0  0  0  0  0  0  0  0  0  0
    8.6002    2.8612    0.6054 C   0  0  0  0  0  0  0  0  0  0  0  0
    8.3429    4.1339    0.1599 N   0  0  0  0  0  0  0  0  0  0  0  0
    4.2842   -1.5949   -1.5337 C   0  0  0  0  0  0  0  0  0  0  0  0
    5.4592   -2.3395   -1.6557 C   0  0  0  0  0  0  0  0  0  0  0  0
    6.1551   -2.7171   -0.5093 C   0  0  0  0  0  0  0  0  0  0  0  0
    5.6958   -2.3518    0.7573 C   0  0  0  0  0  0  0  0  0  0  0  0
    4.5230   -1.6019    0.8821 C   0  0  0  0  0  0  0  0  0  0  0  0
    3.5011    3.1943    0.2718 C   0  0  0  0  0  0  0  0  0  0  0  0
    2.8065    3.4349    1.6130 C   0  0  0  0  0  0  0  0  0  0  0  0
   -3.2004   -1.1602   -0.0382 H   0  0  0  0  0  0  0  0  0  0  0  0
   -3.1765    1.3237   -0.1183 H   0  0  0  0  0  0  0  0  0  0  0  0
   -1.0077    2.5301   -0.2169 H   0  0  0  0  0  0  0  0  0  0  0  0
    4.4220    1.3178    0.8631 H   0  0  0  0  0  0  0  0  0  0  0  0
    4.1167    1.6616   -2.0611 H   0  0  0  0  0  0  0  0  0  0  0  0
    6.5192    4.5396   -3.8597 H   0  0  0  0  0  0  0  0  0  0  0  0
    9.5603    2.5975    1.0633 H   0  0  0  0  0  0  0  0  0  0  0  0
    8.2487    4.9168    0.7752 H   0  0  0  0  0  0  0  0  0  0  0  0
    3.7340   -1.3161   -2.4255 H   0  0  0  0  0  0  0  0  0  0  0  0
    5.8164   -2.6281   -2.6360 H   0  0  0  0  0  0  0  0  0  0  0  0
    7.0611   -3.3075   -0.6024 H   0  0  0  0  0  0  0  0  0  0  0  0
    6.2321   -2.6604    1.6419 H   0  0  0  0  0  0  0  0  0  0  0  0
    4.1524   -1.3461    1.8721 H   0  0  0  0  0  0  0  0  0  0  0  0
    4.4022    3.8188    0.2791 H   0  0  0  0  0  0  0  0  0  0  0  0
    2.8723    3.5835   -0.5394 H   0  0  0  0  0  0  0  0  0  0  0  0
    3.4637    3.1693    2.4461 H   0  0  0  0  0  0  0  0  0  0  0  0
    2.5448    4.4940    1.7112 H   0  0  0  0  0  0  0  0  0  0  0  0
    1.8797    2.8676    1.7256 H   0  0  0  0  0  0  0  0  0  0  0  0
  1  2  2  0  0  0  0
  1 32  1  0  0  0  0
  2  3  1  0  0  0  0
  2 33  1  0  0  0  0
  3  4  2  0  0  0  0
  3 34  1  0  0  0  0
  4  5  1  0  0  0  0
  4  7  1  0  0  0  0
  5  6  2  0  0  0  0
  6  1  1  0  0  0  0
  6 11  1  0  0  0  0
  7  8  2  0  0  0  0
  8  9  1  0  0  0  0
  8 14  1  0  0  0  0
  9 10  1  0  0  0  0
  9 13  1  0  0  0  0
 10  5  1  0  0  0  0
 10 12  2  0  0  0  0
 13 25  2  0  0  0  0
 14 15  1  0  0  0  0
 14 30  1  0  0  0  0
 14 35  1  1  0  0  0
 15 16  1  0  0  0  0
 15 36  1  0  0  0  0
 16 17  2  0  0  0  0
 17 18  1  0  0  0  0
 17 22  1  0  0  0  0
 18 19  2  0  0  0  0
 19 20  1  0  0  0  0
 20 21  2  0  0  0  0
 20 37  1  0  0  0  0
 21 16  1  0  0  0  0
 22 23  2  0  0  0  0
 23 24  1  0  0  0  0
 23 38  1  0  0  0  0
 24 18  1  0  0  0  0
 24 39  1  0  0  0  0
 25 26  1  0  0  0  0
 25 40  1  0  0  0  0
 26 27  2  0  0  0  0
 26 41  1  0  0  0  0
 27 28  1  0  0  0  0
 27 42  1  0  0  0  0
 28 29  2  0  0  0  0
 28 43  1  0  0  0  0
 29 13  1  0  0  0  0
 29 44  1  0  0  0  0
 30 31  1  0  0  0  0
 30 45  1  0  0  0  0
 30 46  1  0  0  0  0
 31 47  1  0  0  0  0
 31 48  1  0  0  0  0
 31 49  1  0  0  0  0
M  END
>  <Mol_ID>
798

>  <Formula>
C22H18FN7O

>  <MolWeight>
415.4230232

>  <Cat>
S2226

>  <Name>
Idelalisib

>  <Synonyms>
CAL-101, GS-1101

>  <Target>
Autophagy,PI3K

>  <Form>
free base

>  <CAS>
870281-82-6

>  <URL>
http://selleckchem.com/products/CAL-101.html

$$$$
