Calpeptin.cdx
 OpenBabel08302519593D

 56 56  0  0  0  0  0  0  0  0999 V2000
   -5.9362    9.4578    7.2262 C   0  0  0  0  0  0  0  0  0  0  0  0
   -5.1526   10.4188    7.8621 C   0  0  0  0  0  0  0  0  0  0  0  0
   -4.4118   11.3232    7.1037 C   0  0  0  0  0  0  0  0  0  0  0  0
   -4.4344   11.2509    5.7087 C   0  0  0  0  0  0  0  0  0  0  0  0
   -5.1965   10.2697    5.0577 C   0  0  0  0  0  0  0  0  0  0  0  0
   -5.9585    9.3827    5.8313 C   0  0  0  0  0  0  0  0  0  0  0  0
   -5.1835   10.1548    3.5538 C   0  0  0  0  0  0  0  0  0  0  0  0
   -4.0764    9.3547    3.1027 O   0  0  0  0  0  0  0  0  0  0  0  0
   -4.3976    8.1457    2.5825 C   0  0  0  0  0  0  0  0  0  0  0  0
   -3.3094    7.5922    1.9691 N   0  0  0  0  0  0  0  0  0  0  0  0
   -5.5086    7.6371    2.6019 O   0  0  0  0  0  0  0  0  0  0  0  0
   -3.4299    6.4115    1.1179 C   0  0  2  0  0  0  0  0  0  0  0  0
   -2.0705    5.6792    1.0583 C   0  0  0  0  0  0  0  0  0  0  0  0
   -3.8807    6.8161   -0.3038 C   0  0  0  0  0  0  0  0  0  0  0  0
   -4.0845    5.6456   -1.2901 C   0  0  0  0  0  0  0  0  0  0  0  0
   -5.1434    4.6530   -0.8092 C   0  0  0  0  0  0  0  0  0  0  0  0
   -2.1054    4.3759    1.5210 N   0  0  0  0  0  0  0  0  0  0  0  0
   -1.0449    6.2164    0.6465 O   0  0  0  0  0  0  0  0  0  0  0  0
   -1.0364    3.4273    1.1958 C   0  0  2  0  0  0  0  0  0  0  0  0
   -1.4476    2.7389   -0.1038 C   0  0  0  0  0  0  0  0  0  0  0  0
   -2.6102    2.4961   -0.4090 O   0  0  0  0  0  0  0  0  0  0  0  0
   -0.8666    2.3849    2.3124 C   0  0  0  0  0  0  0  0  0  0  0  0
    0.1890    1.3010    2.0450 C   0  0  0  0  0  0  0  0  0  0  0  0
    1.6036    1.8491    1.8569 C   0  0  0  0  0  0  0  0  0  0  0  0
    2.6112    0.7315    1.6262 C   0  0  0  0  0  0  0  0  0  0  0  0
   -4.4787    6.1758   -2.6729 C   0  0  0  0  0  0  0  0  0  0  0  0
   -6.5240    8.7596    7.8166 H   0  0  0  0  0  0  0  0  0  0  0  0
   -5.1174   10.4613    8.9476 H   0  0  0  0  0  0  0  0  0  0  0  0
   -3.8091   12.0800    7.5993 H   0  0  0  0  0  0  0  0  0  0  0  0
   -3.8496   11.9640    5.1320 H   0  0  0  0  0  0  0  0  0  0  0  0
   -6.5722    8.6239    5.3490 H   0  0  0  0  0  0  0  0  0  0  0  0
   -6.1521    9.7968    3.1833 H   0  0  0  0  0  0  0  0  0  0  0  0
   -5.0532   11.1516    3.1158 H   0  0  0  0  0  0  0  0  0  0  0  0
   -2.4664    8.1506    1.9260 H   0  0  0  0  0  0  0  0  0  0  0  0
   -4.1815    5.7591    1.5719 H   0  0  0  0  0  0  0  0  0  0  0  0
   -4.8157    7.3882   -0.2336 H   0  0  0  0  0  0  0  0  0  0  0  0
   -3.1405    7.5074   -0.7308 H   0  0  0  0  0  0  0  0  0  0  0  0
   -3.1349    5.1100   -1.4082 H   0  0  0  0  0  0  0  0  0  0  0  0
   -6.1055    5.1498   -0.6446 H   0  0  0  0  0  0  0  0  0  0  0  0
   -5.2942    3.8598   -1.5489 H   0  0  0  0  0  0  0  0  0  0  0  0
   -4.8472    4.1691    0.1246 H   0  0  0  0  0  0  0  0  0  0  0  0
   -3.0196    3.9600    1.6534 H   0  0  0  0  0  0  0  0  0  0  0  0
   -0.1090    3.9800    1.0135 H   0  0  0  0  0  0  0  0  0  0  0  0
   -0.6135    2.4046   -0.7422 H   0  0  0  0  0  0  0  0  0  0  0  0
   -0.6239    2.8989    3.2490 H   0  0  0  0  0  0  0  0  0  0  0  0
   -1.8263    1.8798    2.4817 H   0  0  0  0  0  0  0  0  0  0  0  0
    0.1861    0.6082    2.8966 H   0  0  0  0  0  0  0  0  0  0  0  0
   -0.0982    0.7073    1.1689 H   0  0  0  0  0  0  0  0  0  0  0  0
    1.6396    2.5268    0.9983 H   0  0  0  0  0  0  0  0  0  0  0  0
    1.8992    2.4236    2.7420 H   0  0  0  0  0  0  0  0  0  0  0  0
    2.3581    0.1535    0.7314 H   0  0  0  0  0  0  0  0  0  0  0  0
    3.6131    1.1497    1.4857 H   0  0  0  0  0  0  0  0  0  0  0  0
    2.6457    0.0471    2.4796 H   0  0  0  0  0  0  0  0  0  0  0  0
   -3.7176    6.8591   -3.0639 H   0  0  0  0  0  0  0  0  0  0  0  0
   -4.5824    5.3519   -3.3884 H   0  0  0  0  0  0  0  0  0  0  0  0
   -5.4332    6.7120   -2.6380 H   0  0  0  0  0  0  0  0  0  0  0  0
  1  2  2  0  0  0  0
  1 27  1  0  0  0  0
  2  3  1  0  0  0  0
  2 28  1  0  0  0  0
  3  4  2  0  0  0  0
  3 29  1  0  0  0  0
  4  5  1  0  0  0  0
  4 30  1  0  0  0  0
  5  6  2  0  0  0  0
  5  7  1  0  0  0  0
  6  1  1  0  0  0  0
  6 31  1  0  0  0  0
  7  8  1  0  0  0  0
  7 32  1  0  0  0  0
  7 33  1  0  0  0  0
  8  9  1  0  0  0  0
  9 10  1  0  0  0  0
  9 11  2  0  0  0  0
 10 34  1  0  0  0  0
 12 14  1  0  0  0  0
 12 35  1  1  0  0  0
 12 13  1  0  0  0  0
 12 10  1  0  0  0  0
 13 17  1  0  0  0  0
 13 18  2  0  0  0  0
 14 15  1  0  0  0  0
 14 36  1  0  0  0  0
 14 37  1  0  0  0  0
 15 16  1  0  0  0  0
 15 26  1  0  0  0  0
 15 38  1  0  0  0  0
 16 39  1  0  0  0  0
 16 40  1  0  0  0  0
 16 41  1  0  0  0  0
 17 42  1  0  0  0  0
 19 22  1  0  0  0  0
 19 43  1  6  0  0  0
 19 20  1  0  0  0  0
 19 17  1  0  0  0  0
 20 21  2  0  0  0  0
 20 44  1  0  0  0  0
 22 23  1  0  0  0  0
 22 45  1  0  0  0  0
 22 46  1  0  0  0  0
 23 24  1  0  0  0  0
 23 47  1  0  0  0  0
 23 48  1  0  0  0  0
 24 25  1  0  0  0  0
 24 49  1  0  0  0  0
 24 50  1  0  0  0  0
 25 51  1  0  0  0  0
 25 52  1  0  0  0  0
 25 53  1  0  0  0  0
 26 54  1  0  0  0  0
 26 55  1  0  0  0  0
 26 56  1  0  0  0  0
M  END
>  <Mol_ID>
2549

>  <Formula>
C20H30N2O4

>  <MolWeight>
362.4632

>  <Cat>
S7396

>  <Name>
Calpeptin

>  <Synonyms>
N/A

>  <Target>
Apoptosis related,Cysteine Protease

>  <Form>
free base

>  <CAS>
117591-20-5

>  <URL>
http://selleckchem.com/products/calpeptin.html

$$$$
