Camizestrant (AZD9833)
 OpenBabel08302521353D

 62 66  0  0  0  0  0  0  0  0999 V2000
   -5.1864    2.1289    0.1038 C   0  0  0  0  0  0  0  0  0  0  0  0
   -3.9205    2.3022   -0.4690 C   0  0  0  0  0  0  0  0  0  0  0  0
   -2.8190    1.7527    0.1895 C   0  0  0  0  0  0  0  0  0  0  0  0
   -2.9671    0.8381    1.1858 N   0  0  0  0  0  0  0  0  0  0  0  0
   -4.2106    0.7006    1.7158 C   0  0  0  0  0  0  0  0  0  0  0  0
   -5.3420    1.3852    1.2762 C   0  0  0  0  0  0  0  0  0  0  0  0
   -6.5271    1.5004    2.0327 N   0  0  0  0  0  0  0  0  0  0  0  0
   -6.8884    0.7199    3.1831 C   0  0  0  0  0  0  0  0  0  0  0  0
   -1.4927    2.5637    0.2414 C   0  0  2  0  0  0  0  0  0  0  0  0
   -7.9176   -0.3888    2.8712 C   0  0  0  0  0  0  0  0  0  0  0  0
   -8.6598   -0.0359    4.1169 N   0  0  0  0  0  0  0  0  0  0  0  0
   -8.0186    1.3128    4.0597 C   0  0  0  0  0  0  0  0  0  0  0  0
   -1.7998    3.9015    0.9822 C   0  0  0  0  0  0  0  0  0  0  0  0
   -1.3581    5.1451    0.4691 C   0  0  0  0  0  0  0  0  0  0  0  0
   -0.4332    5.1582   -0.7233 C   0  0  0  0  0  0  0  0  0  0  0  0
    0.2616    3.7955   -0.9336 C   0  0  2  0  0  0  0  0  0  0  0  0
   -0.8075    2.7709   -1.0698 N   0  0  0  0  0  0  0  0  0  0  0  0
   -2.5601    3.8762    2.1724 C   0  0  0  0  0  0  0  0  0  0  0  0
   -3.0475    5.0281    2.7792 C   0  0  0  0  0  0  0  0  0  0  0  0
   -2.6681    6.2347    2.2005 C   0  0  0  0  0  0  0  0  0  0  0  0
   -1.8243    6.3222    1.0968 C   0  0  0  0  0  0  0  0  0  0  0  0
   -2.9785    7.5241    2.5276 N   0  0  0  0  0  0  0  0  0  0  0  0
   -2.3671    8.4516    1.7715 N   0  0  0  0  0  0  0  0  0  0  0  0
   -1.6653    7.7096    0.9071 C   0  0  0  0  0  0  0  0  0  0  0  0
   -0.3218    1.4932   -1.6569 C   0  0  0  0  0  0  0  0  0  0  0  0
    0.3085    1.4833   -3.0773 C   0  0  0  0  0  0  0  0  0  0  0  0
    0.3216    2.6945   -3.6745 F   0  0  0  0  0  0  0  0  0  0  0  0
    1.5926    1.0502   -3.0226 F   0  0  0  0  0  0  0  0  0  0  0  0
   -0.3607    0.6424   -3.9006 F   0  0  0  0  0  0  0  0  0  0  0  0
   -8.1465   -0.8413    5.2443 C   0  0  0  0  0  0  0  0  0  0  0  0
   -8.8921   -0.5449    6.5483 C   0  0  0  0  0  0  0  0  0  0  0  0
   -8.3737   -1.4306    7.6728 C   0  0  0  0  0  0  0  0  0  0  0  0
   -7.0490   -1.1857    7.8595 F   0  0  0  0  0  0  0  0  0  0  0  0
    1.3159    3.5354    0.1637 C   0  0  0  0  0  0  0  0  0  0  0  0
   -6.0252    2.6793   -0.3149 H   0  0  0  0  0  0  0  0  0  0  0  0
   -3.7844    3.0172   -1.2751 H   0  0  0  0  0  0  0  0  0  0  0  0
   -4.2279    0.0847    2.6081 H   0  0  0  0  0  0  0  0  0  0  0  0
   -7.3054    1.9185    1.5312 H   0  0  0  0  0  0  0  0  0  0  0  0
   -6.0286    0.4055    3.7832 H   0  0  0  0  0  0  0  0  0  0  0  0
   -0.8088    2.0042    0.8955 H   0  0  0  0  0  0  0  0  0  0  0  0
   -8.5159   -0.2129    1.9670 H   0  0  0  0  0  0  0  0  0  0  0  0
   -7.5136   -1.4048    2.8107 H   0  0  0  0  0  0  0  0  0  0  0  0
   -7.7070    1.7426    5.0174 H   0  0  0  0  0  0  0  0  0  0  0  0
   -8.6533    2.0546    3.5557 H   0  0  0  0  0  0  0  0  0  0  0  0
    0.3229    5.9423   -0.5960 H   0  0  0  0  0  0  0  0  0  0  0  0
   -1.0218    5.4135   -1.6138 H   0  0  0  0  0  0  0  0  0  0  0  0
    0.8148    3.8856   -1.8736 H   0  0  0  0  0  0  0  0  0  0  0  0
   -2.8344    2.9230    2.6240 H   0  0  0  0  0  0  0  0  0  0  0  0
   -3.6952    4.9714    3.6441 H   0  0  0  0  0  0  0  0  0  0  0  0
   -3.5979    7.8359    3.2696 H   0  0  0  0  0  0  0  0  0  0  0  0
   -1.0643    8.2192    0.1625 H   0  0  0  0  0  0  0  0  0  0  0  0
    0.3898    1.0193   -0.9701 H   0  0  0  0  0  0  0  0  0  0  0  0
   -1.1748    0.8076   -1.7180 H   0  0  0  0  0  0  0  0  0  0  0  0
   -8.3020   -1.9029    5.0035 H   0  0  0  0  0  0  0  0  0  0  0  0
   -7.0677   -0.7133    5.4018 H   0  0  0  0  0  0  0  0  0  0  0  0
   -8.7484    0.5031    6.8316 H   0  0  0  0  0  0  0  0  0  0  0  0
   -9.9664   -0.7170    6.4220 H   0  0  0  0  0  0  0  0  0  0  0  0
   -8.8890   -1.2140    8.6129 H   0  0  0  0  0  0  0  0  0  0  0  0
   -8.4932   -2.4937    7.4437 H   0  0  0  0  0  0  0  0  0  0  0  0
    1.8421    2.5906   -0.0004 H   0  0  0  0  0  0  0  0  0  0  0  0
    2.0647    4.3356    0.1650 H   0  0  0  0  0  0  0  0  0  0  0  0
    0.8934    3.5085    1.1736 H   0  0  0  0  0  0  0  0  0  0  0  0
  1  2  2  0  0  0  0
  1 35  1  0  0  0  0
  2  3  1  0  0  0  0
  2 36  1  0  0  0  0
  3  4  2  0  0  0  0
  4  5  1  0  0  0  0
  5  6  2  0  0  0  0
  5 37  1  0  0  0  0
  6  1  1  0  0  0  0
  6  7  1  0  0  0  0
  7  8  1  0  0  0  0
  7 38  1  0  0  0  0
  8 10  1  0  0  0  0
  8 39  1  0  0  0  0
  9 13  1  0  0  0  0
  9 40  1  1  0  0  0
  9  3  1  0  0  0  0
 10 11  1  0  0  0  0
 10 41  1  0  0  0  0
 10 42  1  0  0  0  0
 11 12  1  0  0  0  0
 11 30  1  0  0  0  0
 12  8  1  0  0  0  0
 12 43  1  0  0  0  0
 12 44  1  0  0  0  0
 13 14  2  0  0  0  0
 13 18  1  0  0  0  0
 14 15  1  0  0  0  0
 15 16  1  0  0  0  0
 15 45  1  0  0  0  0
 15 46  1  0  0  0  0
 16 17  1  0  0  0  0
 16 34  1  0  0  0  0
 16 47  1  6  0  0  0
 17  9  1  0  0  0  0
 17 25  1  0  0  0  0
 18 19  2  0  0  0  0
 18 48  1  0  0  0  0
 19 20  1  0  0  0  0
 19 49  1  0  0  0  0
 20 21  2  0  0  0  0
 20 22  1  0  0  0  0
 21 14  1  0  0  0  0
 22 23  1  0  0  0  0
 22 50  1  0  0  0  0
 23 24  2  0  0  0  0
 24 21  1  0  0  0  0
 24 51  1  0  0  0  0
 25 26  1  0  0  0  0
 25 52  1  0  0  0  0
 25 53  1  0  0  0  0
 26 27  1  0  0  0  0
 26 28  1  0  0  0  0
 26 29  1  0  0  0  0
 30 31  1  0  0  0  0
 30 54  1  0  0  0  0
 30 55  1  0  0  0  0
 31 32  1  0  0  0  0
 31 56  1  0  0  0  0
 31 57  1  0  0  0  0
 32 33  1  0  0  0  0
 32 58  1  0  0  0  0
 32 59  1  0  0  0  0
 34 60  1  0  0  0  0
 34 61  1  0  0  0  0
 34 62  1  0  0  0  0
M  END
>  <Mol_ID>
6756

>  <Formula>
C24H28F4N6

>  <MolWeight>
476.5129328

>  <Cat>
S8958

>  <Name>
Camizestrant (AZD9833)

>  <Synonyms>
N/A

>  <Target>
Estrogen/progestogen Receptor

>  <Form>
Free base

>  <CAS>
2222844-89-3

>  <URL>
http://www.selleckchem.com/products/azd9833.html

$$$$
