canrenoic acid, potassium salt.cdx
 OpenBabel08302521363D

 55 58  0  0  0  0  0  0  0  0999 V2000
    0.8830    2.2086   -0.6897 C   0  0  1  0  0  0  0  0  0  0  0  0
   -0.0722    3.3518   -0.9326 C   0  0  1  0  0  0  0  0  0  0  0  0
    0.3231    0.9723    0.0355 C   0  0  1  0  0  0  0  0  0  0  0  0
    2.0414    1.6300   -1.4678 C   0  0  0  0  0  0  0  0  0  0  0  0
   -0.8349    3.8170    0.4693 C   0  0  1  0  0  0  0  0  0  0  0  0
    0.5889    4.6058   -1.3938 C   0  0  0  0  0  0  0  0  0  0  0  0
    1.6357    0.7322    0.8824 C   0  0  1  0  0  0  0  0  0  0  0  0
   -1.1493    1.2247    0.3824 C   0  0  0  0  0  0  0  0  0  0  0  0
    2.6782    0.7210   -0.3483 C   0  0  0  0  0  0  0  0  0  0  0  0
   -1.8251    5.1362    0.3282 C   0  0  2  0  0  0  0  0  0  0  0  0
   -1.6367    2.5628    0.8917 C   0  0  0  0  0  0  0  0  0  0  0  0
   -0.2846    5.5959   -1.5788 C   0  0  0  0  0  0  0  0  0  0  0  0
    2.1079    1.8088    1.9370 C   0  0  0  0  0  0  0  0  0  0  0  0
    1.5282   -0.5098    1.5380 O   0  0  0  0  0  0  0  0  0  0  0  0
   -1.6898    5.2888   -1.1920 C   0  0  0  0  0  0  0  0  0  0  0  0
   -1.5971    6.7394    0.5409 C   0  0  0  0  0  0  0  0  0  0  0  0
    3.4633    1.5369    2.5906 C   0  0  0  0  0  0  0  0  0  0  0  0
   -2.7609    5.5899   -1.9189 C   0  0  0  0  0  0  0  0  0  0  0  0
   -2.1650    7.7078   -0.6402 C   0  0  0  0  0  0  0  0  0  0  0  0
    4.0590    2.7381    3.3491 C   0  0  0  0  0  0  0  0  0  0  0  0
   -2.6565    7.0606   -1.9339 C   0  0  0  0  0  0  0  0  0  0  0  0
    5.1678    2.4881    3.9133 O   0  0  0  0  0  0  0  0  0  0  0  0
    3.4188    3.8229    3.3085 O   0  5  0  0  0  0  0  0  0  0  0  0
   -2.9784    7.6867   -2.9509 O   0  0  0  0  0  0  0  0  0  0  0  0
   -3.1319    4.9399    1.2273 C   0  0  0  0  0  0  0  0  0  0  0  0
    0.1024   -0.3909   -0.7779 C   0  0  0  0  0  0  0  0  0  0  0  0
    1.4654    2.8081   -0.0080 H   0  0  0  0  0  0  0  0  0  0  0  0
   -0.7902    3.0197   -1.6970 H   0  0  0  0  0  0  0  0  0  0  0  0
    1.7199    1.0441   -2.3354 H   0  0  0  0  0  0  0  0  0  0  0  0
    2.7524    2.3882   -1.8015 H   0  0  0  0  0  0  0  0  0  0  0  0
   -0.1000    4.0295    1.2401 H   0  0  0  0  0  0  0  0  0  0  0  0
    1.6632    4.7696   -1.3425 H   0  0  0  0  0  0  0  0  0  0  0  0
   -1.6141    0.4097    0.9460 H   0  0  0  0  0  0  0  0  0  0  0  0
   -1.6756    1.1654   -0.5967 H   0  0  0  0  0  0  0  0  0  0  0  0
    2.8783   -0.2886   -0.7220 H   0  0  0  0  0  0  0  0  0  0  0  0
    3.6531    1.1325   -0.0863 H   0  0  0  0  0  0  0  0  0  0  0  0
   -2.6528    2.6285    0.4840 H   0  0  0  0  0  0  0  0  0  0  0  0
   -1.7223    2.4956    1.9809 H   0  0  0  0  0  0  0  0  0  0  0  0
    0.0812    6.6156   -1.6794 H   0  0  0  0  0  0  0  0  0  0  0  0
    1.3386    1.9224    2.7132 H   0  0  0  0  0  0  0  0  0  0  0  0
    2.2221    2.8103    1.5129 H   0  0  0  0  0  0  0  0  0  0  0  0
    2.2326   -1.0913    1.2294 H   0  0  0  0  0  0  0  0  0  0  0  0
   -0.5578    6.9834    0.7793 H   0  0  0  0  0  0  0  0  0  0  0  0
   -2.1412    7.1159    1.4180 H   0  0  0  0  0  0  0  0  0  0  0  0
    4.2211    1.2848    1.8393 H   0  0  0  0  0  0  0  0  0  0  0  0
    3.3852    0.6915    3.2745 H   0  0  0  0  0  0  0  0  0  0  0  0
   -3.7604    5.2784   -1.6489 H   0  0  0  0  0  0  0  0  0  0  0  0
   -3.0156    8.2950   -0.2699 H   0  0  0  0  0  0  0  0  0  0  0  0
   -1.3620    8.4146   -0.9113 H   0  0  0  0  0  0  0  0  0  0  0  0
   -4.0616    4.9727    0.6418 H   0  0  0  0  0  0  0  0  0  0  0  0
   -3.1248    4.0203    1.8321 H   0  0  0  0  0  0  0  0  0  0  0  0
   -3.1974    5.6881    2.0457 H   0  0  0  0  0  0  0  0  0  0  0  0
    1.0024   -0.9083   -1.1128 H   0  0  0  0  0  0  0  0  0  0  0  0
   -0.5327   -0.2617   -1.6584 H   0  0  0  0  0  0  0  0  0  0  0  0
   -0.3964   -1.1214   -0.1194 H   0  0  0  0  0  0  0  0  0  0  0  0
  1  2  1  0  0  0  0
  1  3  1  0  0  0  0
  1  4  1  0  0  0  0
  1 27  1  1  0  0  0
  2  5  1  0  0  0  0
  2  6  1  0  0  0  0
  2 28  1  6  0  0  0
  3  7  1  0  0  0  0
  3  8  1  0  0  0  0
  3 26  1  6  0  0  0
  4  9  1  0  0  0  0
  4 29  1  0  0  0  0
  4 30  1  0  0  0  0
  5 10  1  0  0  0  0
  5 11  1  0  0  0  0
  5 31  1  1  0  0  0
  6 12  2  0  0  0  0
  6 32  1  0  0  0  0
  7 13  1  0  0  0  0
  7 14  1  1  0  0  0
  7  9  1  0  0  0  0
  8 11  1  0  0  0  0
  8 33  1  0  0  0  0
  8 34  1  0  0  0  0
  9 35  1  0  0  0  0
  9 36  1  0  0  0  0
 10 15  1  0  0  0  0
 10 16  1  0  0  0  0
 10 25  1  1  0  0  0
 11 37  1  0  0  0  0
 11 38  1  0  0  0  0
 12 15  1  0  0  0  0
 12 39  1  0  0  0  0
 13 17  1  0  0  0  0
 13 40  1  0  0  0  0
 13 41  1  0  0  0  0
 14 42  1  0  0  0  0
 15 18  2  0  0  0  0
 16 19  1  0  0  0  0
 16 43  1  0  0  0  0
 16 44  1  0  0  0  0
 17 20  1  0  0  0  0
 17 45  1  0  0  0  0
 17 46  1  0  0  0  0
 18 21  1  0  0  0  0
 18 47  1  0  0  0  0
 19 21  1  0  0  0  0
 19 48  1  0  0  0  0
 19 49  1  0  0  0  0
 20 22  2  0  0  0  0
 20 23  1  0  0  0  0
 21 24  2  0  0  0  0
 25 50  1  0  0  0  0
 25 51  1  0  0  0  0
 25 52  1  0  0  0  0
 26 53  1  0  0  0  0
 26 54  1  0  0  0  0
 26 55  1  0  0  0  0
M  CHG  1  23  -1
M  END
>  <Mol_ID>
7125

>  <Formula>
C22H29KO4

>  <MolWeight>
396.56156

>  <Cat>
S4392

>  <Name>
Potassium Canrenoate

>  <Synonyms>
Canrenoic Acid Potassium Salt

>  <Target>
Others

>  <Form>
Potassium salt

>  <CAS>
2181-04-6

>  <URL>
http://selleckchem.com/products/potassium-canrenoate.html

$$$$
