Capecitabine.cdx
 OpenBabel08302521383D

 47 48  0  0  0  0  0  0  0  0999 V2000
   -0.8178    0.7539   -0.3844 N   0  0  0  0  0  0  0  0  0  0  0  0
   -1.3400   -0.4297   -0.2982 C   0  0  0  0  0  0  0  0  0  0  0  0
   -0.5397   -1.6485   -0.0804 C   0  0  0  0  0  0  0  0  0  0  0  0
    0.7775   -1.4883    0.0028 C   0  0  0  0  0  0  0  0  0  0  0  0
    1.3508   -0.2343   -0.0661 N   0  0  0  0  0  0  0  0  0  0  0  0
    0.5502    0.9168   -0.2144 C   0  0  0  0  0  0  0  0  0  0  0  0
    1.0733    2.0338   -0.2115 O   0  0  0  0  0  0  0  0  0  0  0  0
    2.8093   -0.0871    0.0218 C   0  0  2  0  0  0  0  0  0  0  0  0
   -1.0940   -2.8704   -0.1498 F   0  0  0  0  0  0  0  0  0  0  0  0
    3.4379   -1.2228   -0.6146 O   0  0  0  0  0  0  0  0  0  0  0  0
    4.5747   -1.6373    0.1717 C   0  0  1  0  0  0  0  0  0  0  0  0
    4.7404   -0.6317    1.3075 C   0  0  2  0  0  0  0  0  0  0  0  0
    3.3444   -0.0511    1.4662 C   0  0  1  0  0  0  0  0  0  0  0  0
    5.6525    0.4020    0.9125 O   0  0  0  0  0  0  0  0  0  0  0  0
    3.3965    1.2369    2.0760 O   0  0  0  0  0  0  0  0  0  0  0  0
    4.3208   -3.0527    0.6771 C   0  0  0  0  0  0  0  0  0  0  0  0
   -2.7133   -0.5263   -0.4399 N   0  0  0  0  0  0  0  0  0  0  0  0
   -3.6288   -1.5452   -0.1369 C   0  0  0  0  0  0  0  0  0  0  0  0
   -4.8535   -1.2327   -0.6402 O   0  0  0  0  0  0  0  0  0  0  0  0
   -5.7908   -2.3204   -0.7996 C   0  0  0  0  0  0  0  0  0  0  0  0
   -6.5731   -2.7633    0.4432 C   0  0  0  0  0  0  0  0  0  0  0  0
   -7.3404   -1.6498    1.1627 C   0  0  0  0  0  0  0  0  0  0  0  0
   -8.0966   -2.1978    2.3838 C   0  0  0  0  0  0  0  0  0  0  0  0
   -3.3961   -2.5523    0.5085 O   0  0  0  0  0  0  0  0  0  0  0  0
   -8.8360   -1.1072    3.1462 C   0  0  0  0  0  0  0  0  0  0  0  0
    1.4268   -2.3503    0.0923 H   0  0  0  0  0  0  0  0  0  0  0  0
    3.1168    0.8082   -0.5280 H   0  0  0  0  0  0  0  0  0  0  0  0
    5.4476   -1.6442   -0.4901 H   0  0  0  0  0  0  0  0  0  0  0  0
    5.1340   -1.0771    2.2270 H   0  0  0  0  0  0  0  0  0  0  0  0
    2.7482   -0.7062    2.1109 H   0  0  0  0  0  0  0  0  0  0  0  0
    5.8131    0.9391    1.7117 H   0  0  0  0  0  0  0  0  0  0  0  0
    3.7257    1.8660    1.4056 H   0  0  0  0  0  0  0  0  0  0  0  0
    4.1618   -3.7358   -0.1645 H   0  0  0  0  0  0  0  0  0  0  0  0
    5.1694   -3.4188    1.2638 H   0  0  0  0  0  0  0  0  0  0  0  0
    3.4213   -3.1043    1.2991 H   0  0  0  0  0  0  0  0  0  0  0  0
   -3.1496    0.2991   -0.8149 H   0  0  0  0  0  0  0  0  0  0  0  0
   -6.5083   -1.9892   -1.5648 H   0  0  0  0  0  0  0  0  0  0  0  0
   -5.2715   -3.1856   -1.2329 H   0  0  0  0  0  0  0  0  0  0  0  0
   -7.2917   -3.5345    0.1295 H   0  0  0  0  0  0  0  0  0  0  0  0
   -5.8920   -3.2451    1.1529 H   0  0  0  0  0  0  0  0  0  0  0  0
   -6.6418   -0.8708    1.4846 H   0  0  0  0  0  0  0  0  0  0  0  0
   -8.0564   -1.1881    0.4721 H   0  0  0  0  0  0  0  0  0  0  0  0
   -8.8196   -2.9602    2.0682 H   0  0  0  0  0  0  0  0  0  0  0  0
   -7.3927   -2.6883    3.0665 H   0  0  0  0  0  0  0  0  0  0  0  0
   -9.6018   -0.6368    2.5216 H   0  0  0  0  0  0  0  0  0  0  0  0
   -9.3336   -1.5302    4.0261 H   0  0  0  0  0  0  0  0  0  0  0  0
   -8.1460   -0.3313    3.4920 H   0  0  0  0  0  0  0  0  0  0  0  0
  1  2  2  0  0  0  0
  2  3  1  0  0  0  0
  2 17  1  0  0  0  0
  3  4  2  0  0  0  0
  3  9  1  0  0  0  0
  4  5  1  0  0  0  0
  4 26  1  0  0  0  0
  5  6  1  0  0  0  0
  6  1  1  0  0  0  0
  6  7  2  0  0  0  0
  8 10  1  0  0  0  0
  8  5  1  0  0  0  0
  8 27  1  6  0  0  0
 10 11  1  0  0  0  0
 11 12  1  0  0  0  0
 11 16  1  0  0  0  0
 11 28  1  6  0  0  0
 12 13  1  0  0  0  0
 12 29  1  1  0  0  0
 12 14  1  0  0  0  0
 13  8  1  0  0  0  0
 13 15  1  0  0  0  0
 13 30  1  1  0  0  0
 14 31  1  0  0  0  0
 15 32  1  0  0  0  0
 16 33  1  0  0  0  0
 16 34  1  0  0  0  0
 16 35  1  0  0  0  0
 17 18  1  0  0  0  0
 17 36  1  0  0  0  0
 18 19  1  0  0  0  0
 18 24  2  0  0  0  0
 19 20  1  0  0  0  0
 20 21  1  0  0  0  0
 20 37  1  0  0  0  0
 20 38  1  0  0  0  0
 21 22  1  0  0  0  0
 21 39  1  0  0  0  0
 21 40  1  0  0  0  0
 22 23  1  0  0  0  0
 22 41  1  0  0  0  0
 22 42  1  0  0  0  0
 23 25  1  0  0  0  0
 23 43  1  0  0  0  0
 23 44  1  0  0  0  0
 25 45  1  0  0  0  0
 25 46  1  0  0  0  0
 25 47  1  0  0  0  0
M  END
>  <Mol_ID>
92

>  <Formula>
C15H22FN3O6

>  <MolWeight>
359.3500832

>  <Cat>
S1156

>  <Name>
Capecitabine?(RO 09-1978)

>  <Synonyms>
RO 09-1978

>  <Target>
Apoptosis related,DNA/RNA Synthesis

>  <Form>
free base

>  <CAS>
154361-50-9

>  <URL>
http://selleckchem.com/products/Capecitabine(Xeloda).html

$$$$
