CAPITAL SOLEIL 15 (avobenzone ).cdx
 OpenBabel08302521293D

 45 46  0  0  0  0  0  0  0  0999 V2000
   -1.2503    0.0486   -0.0338 C   0  0  0  0  0  0  0  0  0  0  0  0
   -1.1359   -0.7787    1.0824 C   0  0  0  0  0  0  0  0  0  0  0  0
   -0.6797   -0.2394    2.2879 C   0  0  0  0  0  0  0  0  0  0  0  0
   -0.3143    1.1070    2.3746 C   0  0  0  0  0  0  0  0  0  0  0  0
   -0.3903    1.9251    1.2433 C   0  0  0  0  0  0  0  0  0  0  0  0
   -0.8773    1.3943    0.0451 C   0  0  0  0  0  0  0  0  0  0  0  0
   -1.4347   -2.1121    1.1220 O   0  0  0  0  0  0  0  0  0  0  0  0
   -1.8295   -2.7141   -0.1055 C   0  0  0  0  0  0  0  0  0  0  0  0
    0.0732    3.3369    1.3506 C   0  0  0  0  0  0  0  0  0  0  0  0
    0.5847    4.0301    0.1167 C   0  0  0  0  0  0  0  0  0  0  0  0
   -0.4721    4.8276   -0.5966 C   0  0  0  0  0  0  0  0  0  0  0  0
   -0.7771    6.2238   -0.1719 C   0  0  0  0  0  0  0  0  0  0  0  0
    0.0626    3.9025    2.4427 O   0  0  0  0  0  0  0  0  0  0  0  0
   -1.0977    4.3314   -1.5355 O   0  0  0  0  0  0  0  0  0  0  0  0
   -0.0991    6.8552    0.8695 C   0  0  0  0  0  0  0  0  0  0  0  0
   -0.3930    8.1817    1.2022 C   0  0  0  0  0  0  0  0  0  0  0  0
   -1.3763    8.9121    0.5170 C   0  0  0  0  0  0  0  0  0  0  0  0
   -2.0686    8.2509   -0.5141 C   0  0  0  0  0  0  0  0  0  0  0  0
   -1.7719    6.9279   -0.8573 C   0  0  0  0  0  0  0  0  0  0  0  0
   -1.6958   10.3776    0.8557 C   0  0  0  0  0  0  0  0  0  0  0  0
   -0.8384   10.9410    2.0118 C   0  0  0  0  0  0  0  0  0  0  0  0
   -1.4349   11.2615   -0.3826 C   0  0  0  0  0  0  0  0  0  0  0  0
   -3.1745   10.5124    1.2746 C   0  0  0  0  0  0  0  0  0  0  0  0
   -1.6250   -0.3167   -0.9847 H   0  0  0  0  0  0  0  0  0  0  0  0
   -0.5998   -0.8758    3.1664 H   0  0  0  0  0  0  0  0  0  0  0  0
    0.0443    1.5054    3.3213 H   0  0  0  0  0  0  0  0  0  0  0  0
   -0.9903    2.0031   -0.8472 H   0  0  0  0  0  0  0  0  0  0  0  0
   -2.7845   -2.3050   -0.4513 H   0  0  0  0  0  0  0  0  0  0  0  0
   -1.0530   -2.6056   -0.8709 H   0  0  0  0  0  0  0  0  0  0  0  0
   -1.9690   -3.7838    0.0751 H   0  0  0  0  0  0  0  0  0  0  0  0
    1.4430    4.6562    0.3854 H   0  0  0  0  0  0  0  0  0  0  0  0
    1.0110    3.3025   -0.5825 H   0  0  0  0  0  0  0  0  0  0  0  0
    0.6630    6.3506    1.4551 H   0  0  0  0  0  0  0  0  0  0  0  0
    0.1771    8.6206    2.0167 H   0  0  0  0  0  0  0  0  0  0  0  0
   -2.8498    8.7606   -1.0748 H   0  0  0  0  0  0  0  0  0  0  0  0
   -2.3248    6.4540   -1.6669 H   0  0  0  0  0  0  0  0  0  0  0  0
    0.2305   10.9194    1.7678 H   0  0  0  0  0  0  0  0  0  0  0  0
   -1.0989   11.9836    2.2278 H   0  0  0  0  0  0  0  0  0  0  0  0
   -0.9879   10.3725    2.9374 H   0  0  0  0  0  0  0  0  0  0  0  0
   -2.0552   10.9719   -1.2379 H   0  0  0  0  0  0  0  0  0  0  0  0
   -1.6535   12.3141   -0.1687 H   0  0  0  0  0  0  0  0  0  0  0  0
   -0.3874   11.1961   -0.7001 H   0  0  0  0  0  0  0  0  0  0  0  0
   -3.8617   10.2133    0.4760 H   0  0  0  0  0  0  0  0  0  0  0  0
   -3.3950    9.8903    2.1500 H   0  0  0  0  0  0  0  0  0  0  0  0
   -3.4160   11.5500    1.5340 H   0  0  0  0  0  0  0  0  0  0  0  0
  1  2  2  0  0  0  0
  1 24  1  0  0  0  0
  2  3  1  0  0  0  0
  2  7  1  0  0  0  0
  3  4  2  0  0  0  0
  3 25  1  0  0  0  0
  4  5  1  0  0  0  0
  4 26  1  0  0  0  0
  5  6  2  0  0  0  0
  5  9  1  0  0  0  0
  6  1  1  0  0  0  0
  6 27  1  0  0  0  0
  7  8  1  0  0  0  0
  8 28  1  0  0  0  0
  8 29  1  0  0  0  0
  8 30  1  0  0  0  0
  9 10  1  0  0  0  0
  9 13  2  0  0  0  0
 10 11  1  0  0  0  0
 10 31  1  0  0  0  0
 10 32  1  0  0  0  0
 11 12  1  0  0  0  0
 11 14  2  0  0  0  0
 12 15  2  0  0  0  0
 15 16  1  0  0  0  0
 15 33  1  0  0  0  0
 16 17  2  0  0  0  0
 16 34  1  0  0  0  0
 17 18  1  0  0  0  0
 17 20  1  0  0  0  0
 18 19  2  0  0  0  0
 18 35  1  0  0  0  0
 19 12  1  0  0  0  0
 19 36  1  0  0  0  0
 20 21  1  0  0  0  0
 20 22  1  0  0  0  0
 20 23  1  0  0  0  0
 21 37  1  0  0  0  0
 21 38  1  0  0  0  0
 21 39  1  0  0  0  0
 22 40  1  0  0  0  0
 22 41  1  0  0  0  0
 22 42  1  0  0  0  0
 23 43  1  0  0  0  0
 23 44  1  0  0  0  0
 23 45  1  0  0  0  0
M  END
>  <Mol_ID>
524

>  <Formula>
C20H22O3

>  <MolWeight>
310.38688

>  <Cat>
S1904

>  <Name>
Avobenzone

>  <Synonyms>
Butyl methoxydibenzoylmethane, BF2AVB

>  <Target>
Others

>  <Form>
free base

>  <CAS>
70356-09-1

>  <URL>
http://selleckchem.com/products/Avobenzone(Parsol-1789).html

$$$$
