¦Ã-caprolactone
 OpenBabel08302520393D

 18 18  0  0  0  0  0  0  0  0999 V2000
    1.4380   -0.7438   -0.1337 C   0  0  3  0  0  0  0  0  0  0  0  0
    0.0534   -1.0643    0.0458 O   0  0  0  0  0  0  0  0  0  0  0  0
    1.5423    0.7190    0.2467 C   0  0  0  0  0  0  0  0  0  0  0  0
    1.8620   -1.0329   -1.5775 C   0  0  0  0  0  0  0  0  0  0  0  0
   -0.6979    0.0753    0.0095 C   0  0  0  0  0  0  0  0  0  0  0  0
    0.1867    1.2772   -0.1148 C   0  0  0  0  0  0  0  0  0  0  0  0
    1.6975   -2.5048   -1.9372 C   0  0  0  0  0  0  0  0  0  0  0  0
   -1.9158    0.0958    0.0399 O   0  0  0  0  0  0  0  0  0  0  0  0
    2.0296   -1.3562    0.5558 H   0  0  0  0  0  0  0  0  0  0  0  0
    2.3705    1.2502   -0.2313 H   0  0  0  0  0  0  0  0  0  0  0  0
    1.6805    0.8018    1.3331 H   0  0  0  0  0  0  0  0  0  0  0  0
    1.2585   -0.4437   -2.2777 H   0  0  0  0  0  0  0  0  0  0  0  0
    2.9097   -0.7445   -1.7216 H   0  0  0  0  0  0  0  0  0  0  0  0
    0.1565    1.6417   -1.1451 H   0  0  0  0  0  0  0  0  0  0  0  0
   -0.1220    2.0608    0.5809 H   0  0  0  0  0  0  0  0  0  0  0  0
    0.6639   -2.8378   -1.7988 H   0  0  0  0  0  0  0  0  0  0  0  0
    1.9646   -2.6706   -2.9858 H   0  0  0  0  0  0  0  0  0  0  0  0
    2.3464   -3.1339   -1.3191 H   0  0  0  0  0  0  0  0  0  0  0  0
  1  2  1  0  0  0  0
  1  3  1  0  0  0  0
  1  4  1  0  0  0  0
  1  9  1  0  0  0  0
  2  5  1  0  0  0  0
  3  6  1  0  0  0  0
  3 10  1  0  0  0  0
  3 11  1  0  0  0  0
  4  7  1  0  0  0  0
  4 12  1  0  0  0  0
  4 13  1  0  0  0  0
  5  8  2  0  0  0  0
  5  6  1  0  0  0  0
  6 14  1  0  0  0  0
  6 15  1  0  0  0  0
  7 16  1  0  0  0  0
  7 17  1  0  0  0  0
  7 18  1  0  0  0  0
M  END
>  <Mol_ID>
3622

>  <Formula>
C6H10O2

>  <MolWeight>
114.1424

>  <Cat>
S6265

>  <Name>
¦Ã-caprolactone

>  <Synonyms>
N/A

>  <Target>
Others

>  <Form>
free base

>  <CAS>
695-06-7

>  <URL>
http://www.selleck.cn/products/caprolactone.html

$$$$
