Carvacrol methyl ether
 OpenBabel08302521523D

 28 28  0  0  0  0  0  0  0  0999 V2000
    1.0344   -0.1503    0.0888 O   0  0  0  0  0  0  0  0  0  0  0  0
    0.0930    0.8998    0.1004 C   0  0  0  0  0  0  0  0  0  0  0  0
    2.5767    2.7038    0.0898 C   0  0  0  0  0  0  0  0  0  0  0  0
    5.2199   -2.5253    0.0454 C   0  0  0  0  0  0  0  0  0  0  0  0
    4.8781   -3.3781    1.2698 C   0  0  0  0  0  0  0  0  0  0  0  0
    4.9386   -3.2937   -1.2485 C   0  0  0  0  0  0  0  0  0  0  0  0
    2.3777    0.0946    0.0866 C   0  0  0  0  0  0  0  0  0  0  0  0
    3.0869   -1.1271    0.0752 C   0  0  0  0  0  0  0  0  0  0  0  0
    3.0997    1.2952    0.0951 C   0  0  0  0  0  0  0  0  0  0  0  0
    4.4867   -1.1973    0.0683 C   0  0  0  0  0  0  0  0  0  0  0  0
    4.5132    1.2161    0.0889 C   0  0  0  0  0  0  0  0  0  0  0  0
    5.1971   -0.0004    0.0778 C   0  0  0  0  0  0  0  0  0  0  0  0
    0.1720    1.4875    1.0194 H   0  0  0  0  0  0  0  0  0  0  0  0
    0.1721    1.5079   -0.8052 H   0  0  0  0  0  0  0  0  0  0  0  0
   -0.9058    0.4525    0.0963 H   0  0  0  0  0  0  0  0  0  0  0  0
    2.9847    3.2479    0.9494 H   0  0  0  0  0  0  0  0  0  0  0  0
    2.9001    3.2099   -0.8271 H   0  0  0  0  0  0  0  0  0  0  0  0
    1.5014    2.8192    0.1461 H   0  0  0  0  0  0  0  0  0  0  0  0
    6.3006   -2.3316    0.0791 H   0  0  0  0  0  0  0  0  0  0  0  0
    3.8156   -3.6423    1.3032 H   0  0  0  0  0  0  0  0  0  0  0  0
    5.4509   -4.3115    1.2623 H   0  0  0  0  0  0  0  0  0  0  0  0
    5.1179   -2.8443    2.1960 H   0  0  0  0  0  0  0  0  0  0  0  0
    5.2263   -2.7021   -2.1248 H   0  0  0  0  0  0  0  0  0  0  0  0
    5.5081   -4.2290   -1.2740 H   0  0  0  0  0  0  0  0  0  0  0  0
    3.8779   -3.5475   -1.3520 H   0  0  0  0  0  0  0  0  0  0  0  0
    2.5092   -2.0503    0.0672 H   0  0  0  0  0  0  0  0  0  0  0  0
    5.1023    2.1330    0.0927 H   0  0  0  0  0  0  0  0  0  0  0  0
    6.2836    0.0030    0.0720 H   0  0  0  0  0  0  0  0  0  0  0  0
  1  2  1  0  0  0  0
  1  7  1  0  0  0  0
  2 13  1  0  0  0  0
  2 14  1  0  0  0  0
  2 15  1  0  0  0  0
  3  9  1  0  0  0  0
  3 16  1  0  0  0  0
  3 17  1  0  0  0  0
  3 18  1  0  0  0  0
  4  5  1  0  0  0  0
  4  6  1  0  0  0  0
  4 10  1  0  0  0  0
  4 19  1  0  0  0  0
  5 20  1  0  0  0  0
  5 21  1  0  0  0  0
  5 22  1  0  0  0  0
  6 23  1  0  0  0  0
  6 24  1  0  0  0  0
  6 25  1  0  0  0  0
  7  8  2  0  0  0  0
  7  9  1  0  0  0  0
  8 10  1  0  0  0  0
  8 26  1  0  0  0  0
  9 11  2  0  0  0  0
 10 12  2  0  0  0  0
 11 12  1  0  0  0  0
 11 27  1  0  0  0  0
 12 28  1  0  0  0  0
M  END
>  <Mol_ID>
9953

>  <Formula>
C11H16O

>  <MolWeight>
164.24414

>  <Cat>
E5194

>  <Name>
Carvacrol methyl ether

>  <Synonyms>
N/A

>  <Target>
Antioxidant

>  <Form>
free base

>  <CAS>
6379-73-3

>  <URL>
https://www.selleckchem.com/products/carvacrol-methyl-ether.html

$$$$
