CARVEDILOL (carvedilol).cdx
 OpenBabel08302521433D

 56 59  0  0  0  0  0  0  0  0999 V2000
    2.3123   -4.7171   -0.6265 C   0  0  0  0  0  0  0  0  0  0  0  0
    2.2662   -3.8307   -1.7025 C   0  0  0  0  0  0  0  0  0  0  0  0
    1.0275   -3.2929   -2.0187 C   0  0  0  0  0  0  0  0  0  0  0  0
   -0.0811   -3.5191   -1.2028 C   0  0  0  0  0  0  0  0  0  0  0  0
   -0.0153   -4.3102   -0.0354 C   0  0  0  0  0  0  0  0  0  0  0  0
    1.2087   -5.0134    0.1876 C   0  0  0  0  0  0  0  0  0  0  0  0
    1.6336   -6.1039    1.0355 C   0  0  0  0  0  0  0  0  0  0  0  0
    2.9627   -6.4021    0.7235 C   0  0  0  0  0  0  0  0  0  0  0  0
    3.3742   -5.4709   -0.1909 N   0  0  0  0  0  0  0  0  0  0  0  0
    0.9821   -6.9371    1.9690 C   0  0  0  0  0  0  0  0  0  0  0  0
    1.6581   -8.0475    2.4986 C   0  0  0  0  0  0  0  0  0  0  0  0
    2.9757   -8.3245    2.1391 C   0  0  0  0  0  0  0  0  0  0  0  0
    3.6633   -7.4887    1.2599 C   0  0  0  0  0  0  0  0  0  0  0  0
   -1.0980   -4.4660    0.8286 O   0  0  0  0  0  0  0  0  0  0  0  0
   -2.1536   -3.4814    0.6870 C   0  0  0  0  0  0  0  0  0  0  0  0
   -3.3401   -3.6747    1.6642 C   0  0  3  0  0  0  0  0  0  0  0  0
   -4.4662   -2.5843    1.5034 C   0  0  0  0  0  0  0  0  0  0  0  0
   -5.1030   -2.6081    0.1605 N   0  0  0  0  0  0  0  0  0  0  0  0
   -6.2274   -1.6469   -0.0043 C   0  0  0  0  0  0  0  0  0  0  0  0
   -6.8445   -1.7390   -1.4393 C   0  0  0  0  0  0  0  0  0  0  0  0
   -7.8538   -0.7395   -1.7414 O   0  0  0  0  0  0  0  0  0  0  0  0
   -3.9480   -4.9576    1.4497 O   0  0  0  0  0  0  0  0  0  0  0  0
   -9.1458   -1.2085   -1.8584 C   0  0  0  0  0  0  0  0  0  0  0  0
   -9.6361   -2.0905   -0.8789 C   0  0  0  0  0  0  0  0  0  0  0  0
  -10.9448   -2.5794   -0.9159 C   0  0  0  0  0  0  0  0  0  0  0  0
  -11.8048   -2.1785   -1.9300 C   0  0  0  0  0  0  0  0  0  0  0  0
  -11.3517   -1.2887   -2.8834 C   0  0  0  0  0  0  0  0  0  0  0  0
  -10.0291   -0.7727   -2.8663 C   0  0  0  0  0  0  0  0  0  0  0  0
   -9.8710    0.1056   -3.8960 O   0  0  0  0  0  0  0  0  0  0  0  0
   -8.6399    0.7536   -4.1213 C   0  0  0  0  0  0  0  0  0  0  0  0
    3.1375   -3.6356   -2.3192 H   0  0  0  0  0  0  0  0  0  0  0  0
    0.9198   -2.6923   -2.9183 H   0  0  0  0  0  0  0  0  0  0  0  0
   -1.0130   -3.0773   -1.5346 H   0  0  0  0  0  0  0  0  0  0  0  0
    4.2977   -5.4447   -0.5987 H   0  0  0  0  0  0  0  0  0  0  0  0
   -0.0571   -6.7546    2.2283 H   0  0  0  0  0  0  0  0  0  0  0  0
    1.1353   -8.7177    3.1755 H   0  0  0  0  0  0  0  0  0  0  0  0
    3.4710   -9.2095    2.5332 H   0  0  0  0  0  0  0  0  0  0  0  0
    4.6864   -7.7073    0.9686 H   0  0  0  0  0  0  0  0  0  0  0  0
   -1.7266   -2.4830    0.8478 H   0  0  0  0  0  0  0  0  0  0  0  0
   -2.5619   -3.5719   -0.3216 H   0  0  0  0  0  0  0  0  0  0  0  0
   -2.9668   -3.6727    2.6946 H   0  0  0  0  0  0  0  0  0  0  0  0
   -5.2427   -2.8048    2.2489 H   0  0  0  0  0  0  0  0  0  0  0  0
   -4.0551   -1.5925    1.7214 H   0  0  0  0  0  0  0  0  0  0  0  0
   -4.3971   -2.3768   -0.5390 H   0  0  0  0  0  0  0  0  0  0  0  0
   -7.0023   -1.8493    0.7431 H   0  0  0  0  0  0  0  0  0  0  0  0
   -5.8801   -0.6218    0.1716 H   0  0  0  0  0  0  0  0  0  0  0  0
   -6.0381   -1.5575   -2.1604 H   0  0  0  0  0  0  0  0  0  0  0  0
   -7.2039   -2.7564   -1.6399 H   0  0  0  0  0  0  0  0  0  0  0  0
   -4.6417   -4.8125    0.7771 H   0  0  0  0  0  0  0  0  0  0  0  0
   -9.0144   -2.4079   -0.0491 H   0  0  0  0  0  0  0  0  0  0  0  0
  -11.2982   -3.2583   -0.1478 H   0  0  0  0  0  0  0  0  0  0  0  0
  -12.8329   -2.5453   -1.9702 H   0  0  0  0  0  0  0  0  0  0  0  0
  -12.0297   -0.9576   -3.6731 H   0  0  0  0  0  0  0  0  0  0  0  0
   -8.2664    1.2594   -3.2301 H   0  0  0  0  0  0  0  0  0  0  0  0
   -7.9117    0.0586   -4.5459 H   0  0  0  0  0  0  0  0  0  0  0  0
   -8.8312    1.5279   -4.8758 H   0  0  0  0  0  0  0  0  0  0  0  0
  1  2  2  0  0  0  0
  2  3  1  0  0  0  0
  2 31  1  0  0  0  0
  3  4  2  0  0  0  0
  3 32  1  0  0  0  0
  4  5  1  0  0  0  0
  4 33  1  0  0  0  0
  5  6  2  0  0  0  0
  5 14  1  0  0  0  0
  6  1  1  0  0  0  0
  6  7  1  0  0  0  0
  7  8  2  0  0  0  0
  7 10  1  0  0  0  0
  8  9  1  0  0  0  0
  9  1  1  0  0  0  0
  9 34  1  0  0  0  0
 10 11  2  0  0  0  0
 10 35  1  0  0  0  0
 11 12  1  0  0  0  0
 11 36  1  0  0  0  0
 12 13  2  0  0  0  0
 12 37  1  0  0  0  0
 13  8  1  0  0  0  0
 13 38  1  0  0  0  0
 14 15  1  0  0  0  0
 15 16  1  0  0  0  0
 15 39  1  0  0  0  0
 15 40  1  0  0  0  0
 16 17  1  0  0  0  0
 16 22  1  0  0  0  0
 16 41  1  0  0  0  0
 17 18  1  0  0  0  0
 17 42  1  0  0  0  0
 17 43  1  0  0  0  0
 18 19  1  0  0  0  0
 18 44  1  0  0  0  0
 19 20  1  0  0  0  0
 19 45  1  0  0  0  0
 19 46  1  0  0  0  0
 20 21  1  0  0  0  0
 20 47  1  0  0  0  0
 20 48  1  0  0  0  0
 21 23  1  0  0  0  0
 22 49  1  0  0  0  0
 23 24  2  0  0  0  0
 24 25  1  0  0  0  0
 24 50  1  0  0  0  0
 25 26  2  0  0  0  0
 25 51  1  0  0  0  0
 26 27  1  0  0  0  0
 26 52  1  0  0  0  0
 27 28  2  0  0  0  0
 27 53  1  0  0  0  0
 28 23  1  0  0  0  0
 28 29  1  0  0  0  0
 29 30  1  0  0  0  0
 30 54  1  0  0  0  0
 30 55  1  0  0  0  0
 30 56  1  0  0  0  0
M  END
>  <Mol_ID>
883

>  <Formula>
C24H26N2O4

>  <MolWeight>
406.47424

>  <Cat>
S1831

>  <Name>
Carvedilol

>  <Synonyms>
BM-14190, SKF 105517

>  <Target>
Adrenergic Receptor

>  <Form>
free base

>  <CAS>
72956-09-3

>  <URL>
http://selleckchem.com/products/carvedilol.html

$$$$
