Catharanthine.cdx
 OpenBabel08302521593D

 49 53  0  0  0  0  0  0  0  0999 V2000
    5.5889    0.6462    0.1569 C   0  0  0  0  0  0  0  0  0  0  0  0
    5.5562    1.5814    1.1903 C   0  0  0  0  0  0  0  0  0  0  0  0
    4.3436    2.0052    1.7266 C   0  0  0  0  0  0  0  0  0  0  0  0
    3.1823    1.5118    1.1316 C   0  0  0  0  0  0  0  0  0  0  0  0
    3.1705    0.7156   -0.0097 C   0  0  0  0  0  0  0  0  0  0  0  0
    4.4055    0.2088   -0.4603 C   0  0  0  0  0  0  0  0  0  0  0  0
    1.8807    1.6980    1.4874 N   0  0  0  0  0  0  0  0  0  0  0  0
    1.0501    1.3512    0.4450 C   0  0  0  0  0  0  0  0  0  0  0  0
    1.8244    0.7597   -0.5280 C   0  0  0  0  0  0  0  0  0  0  0  0
   -0.3767    1.8354    0.4861 C   0  0  2  0  0  0  0  0  0  0  0  0
   -1.4264    1.2829   -0.5186 C   0  0  2  0  0  0  0  0  0  0  0  0
   -1.0745    1.6247   -1.9418 N   0  0  2  0  0  0  0  0  0  0  0  0
    0.2830    1.3539   -2.4876 C   0  0  0  0  0  0  0  0  0  0  0  0
    1.3894    0.4379   -1.9159 C   0  0  0  0  0  0  0  0  0  0  0  0
   -0.2938    3.3903    0.1761 C   0  0  0  0  0  0  0  0  0  0  0  0
   -1.3955    3.8402   -0.8321 C   0  0  2  0  0  0  0  0  0  0  0  0
   -2.6762    3.4127   -0.2050 C   0  0  0  0  0  0  0  0  0  0  0  0
   -2.7586    2.0711   -0.0795 C   0  0  0  0  0  0  0  0  0  0  0  0
   -1.3785    3.0620   -2.1743 C   0  0  0  0  0  0  0  0  0  0  0  0
   -0.8587    1.3974    1.8918 C   0  0  0  0  0  0  0  0  0  0  0  0
   -3.8485    1.5009    0.7835 C   0  0  0  0  0  0  0  0  0  0  0  0
   -5.0822    1.0989    0.0037 C   0  0  0  0  0  0  0  0  0  0  0  0
   -0.9213    2.1089    2.8775 O   0  0  0  0  0  0  0  0  0  0  0  0
   -1.0595    0.0239    1.9261 O   0  0  0  0  0  0  0  0  0  0  0  0
   -1.3707   -0.5671    3.1895 C   0  0  0  0  0  0  0  0  0  0  0  0
    6.5481    0.2834   -0.2025 H   0  0  0  0  0  0  0  0  0  0  0  0
    6.4830    1.9819    1.5933 H   0  0  0  0  0  0  0  0  0  0  0  0
    4.3016    2.7206    2.5415 H   0  0  0  0  0  0  0  0  0  0  0  0
    4.4512   -0.4831   -1.2951 H   0  0  0  0  0  0  0  0  0  0  0  0
    1.5840    2.1841    2.3244 H   0  0  0  0  0  0  0  0  0  0  0  0
   -1.6042    0.2035   -0.4511 H   0  0  0  0  0  0  0  0  0  0  0  0
    0.8032    2.3131   -2.6262 H   0  0  0  0  0  0  0  0  0  0  0  0
    0.1048    0.9943   -3.5109 H   0  0  0  0  0  0  0  0  0  0  0  0
    1.1738   -0.6233   -2.0501 H   0  0  0  0  0  0  0  0  0  0  0  0
    2.2680    0.6478   -2.5531 H   0  0  0  0  0  0  0  0  0  0  0  0
   -0.3673    3.9633    1.1062 H   0  0  0  0  0  0  0  0  0  0  0  0
    0.6736    3.6468   -0.2792 H   0  0  0  0  0  0  0  0  0  0  0  0
   -1.3553    4.9181   -1.0133 H   0  0  0  0  0  0  0  0  0  0  0  0
   -3.3930    4.1330    0.1704 H   0  0  0  0  0  0  0  0  0  0  0  0
   -2.3725    3.1041   -2.6486 H   0  0  0  0  0  0  0  0  0  0  0  0
   -0.7231    3.5445   -2.9087 H   0  0  0  0  0  0  0  0  0  0  0  0
   -4.1555    2.2607    1.5207 H   0  0  0  0  0  0  0  0  0  0  0  0
   -3.4827    0.6604    1.3744 H   0  0  0  0  0  0  0  0  0  0  0  0
   -5.5767    1.9751   -0.4306 H   0  0  0  0  0  0  0  0  0  0  0  0
   -5.7987    0.6153    0.6760 H   0  0  0  0  0  0  0  0  0  0  0  0
   -4.8338    0.4019   -0.7998 H   0  0  0  0  0  0  0  0  0  0  0  0
   -0.4439   -0.8049    3.7183 H   0  0  0  0  0  0  0  0  0  0  0  0
   -2.0148    0.0706    3.8003 H   0  0  0  0  0  0  0  0  0  0  0  0
   -1.9037   -1.5039    2.9964 H   0  0  0  0  0  0  0  0  0  0  0  0
  1  2  2  0  0  0  0
  1 26  1  0  0  0  0
  2  3  1  0  0  0  0
  2 27  1  0  0  0  0
  3  4  2  0  0  0  0
  3 28  1  0  0  0  0
  4  5  1  0  0  0  0
  4  7  1  0  0  0  0
  5  6  2  0  0  0  0
  6  1  1  0  0  0  0
  6 29  1  0  0  0  0
  7  8  1  0  0  0  0
  7 30  1  0  0  0  0
  8  9  2  0  0  0  0
  8 10  1  0  0  0  0
  9  5  1  0  0  0  0
 10 11  1  0  0  0  0
 10 15  1  0  0  0  0
 10 20  1  1  0  0  0
 11 12  1  0  0  0  0
 11 18  1  0  0  0  0
 11 31  1  1  0  0  0
 12 13  1  1  0  0  0
 12 19  1  0  0  0  0
 13 14  1  0  0  0  0
 13 32  1  0  0  0  0
 13 33  1  0  0  0  0
 14  9  1  0  0  0  0
 14 34  1  0  0  0  0
 14 35  1  0  0  0  0
 15 36  1  0  0  0  0
 15 37  1  0  0  0  0
 16 15  1  0  0  0  0
 16 17  1  0  0  0  0
 16 19  1  0  0  0  0
 16 38  1  6  0  0  0
 17 18  2  0  0  0  0
 17 39  1  0  0  0  0
 18 21  1  0  0  0  0
 19 40  1  0  0  0  0
 19 41  1  0  0  0  0
 20 23  2  0  0  0  0
 20 24  1  0  0  0  0
 21 22  1  0  0  0  0
 21 42  1  0  0  0  0
 21 43  1  0  0  0  0
 22 44  1  0  0  0  0
 22 45  1  0  0  0  0
 22 46  1  0  0  0  0
 24 25  1  0  0  0  0
 25 47  1  0  0  0  0
 25 48  1  0  0  0  0
 25 49  1  0  0  0  0
M  END
>  <Mol_ID>
1007

>  <Formula>
C21H24N2O2

>  <MolWeight>
336.42746

>  <Cat>
S3202

>  <Name>
Catharanthine

>  <Synonyms>
N/A

>  <Target>
AChR

>  <Form>
free base

>  <CAS>
2468-21-5

>  <URL>
http://selleckchem.com/products/catharanthine.html

$$$$
