CB1954.cdx
 OpenBabel08302520003D

 26 27  0  0  0  0  0  0  0  0999 V2000
    1.3650   -0.0295   -0.0835 C   0  0  0  0  0  0  0  0  0  0  0  0
    0.5336   -1.1594    0.0683 C   0  0  0  0  0  0  0  0  0  0  0  0
   -0.8659   -1.0274    0.0156 C   0  0  0  0  0  0  0  0  0  0  0  0
   -1.4714    0.2170   -0.1399 C   0  0  0  0  0  0  0  0  0  0  0  0
   -0.6201    1.3309   -0.2538 C   0  0  0  0  0  0  0  0  0  0  0  0
    0.7917    1.2412   -0.2981 C   0  0  0  0  0  0  0  0  0  0  0  0
    2.8235   -0.2567   -0.0057 N   0  3  0  0  0  0  0  0  0  0  0  0
    3.1967   -1.4307    0.1566 O   0  0  0  0  0  0  0  0  0  0  0  0
    3.6021    0.6968   -0.0960 O   0  5  0  0  0  0  0  0  0  0  0  0
    1.5300    2.4346   -0.4983 N   0  0  0  0  0  0  0  0  0  0  0  0
   -2.9183    0.5141   -0.3290 C   0  0  0  0  0  0  0  0  0  0  0  0
   -3.8681   -0.3389    0.1339 N   0  0  0  0  0  0  0  0  0  0  0  0
   -3.2606    1.5439   -0.8999 O   0  0  0  0  0  0  0  0  0  0  0  0
   -1.6352   -2.2425    0.1119 N   0  3  0  0  0  0  0  0  0  0  0  0
   -1.4571   -3.0870   -0.7727 O   0  0  0  0  0  0  0  0  0  0  0  0
   -2.3785   -2.3644    1.0950 O   0  5  0  0  0  0  0  0  0  0  0  0
    0.9945    3.4973   -1.3560 C   0  0  0  0  0  0  0  0  0  0  0  0
    2.1757    2.6775   -1.7876 C   0  0  0  0  0  0  0  0  0  0  0  0
    0.9636   -2.1546    0.2096 H   0  0  0  0  0  0  0  0  0  0  0  0
   -1.0813    2.3179   -0.3251 H   0  0  0  0  0  0  0  0  0  0  0  0
   -4.8320   -0.0481    0.0121 H   0  0  0  0  0  0  0  0  0  0  0  0
   -3.7072   -1.1132    0.7719 H   0  0  0  0  0  0  0  0  0  0  0  0
    0.0694    3.3243   -1.8889 H   0  0  0  0  0  0  0  0  0  0  0  0
    1.1538    4.4863   -0.9519 H   0  0  0  0  0  0  0  0  0  0  0  0
    3.1567    3.1257   -1.7065 H   0  0  0  0  0  0  0  0  0  0  0  0
    2.0356    1.9203   -2.5457 H   0  0  0  0  0  0  0  0  0  0  0  0
  1  2  2  0  0  0  0
  1  7  1  0  0  0  0
  2  3  1  0  0  0  0
  2 19  1  0  0  0  0
  3  4  2  0  0  0  0
  3 14  1  0  0  0  0
  4  5  1  0  0  0  0
  4 11  1  0  0  0  0
  5  6  2  0  0  0  0
  5 20  1  0  0  0  0
  6  1  1  0  0  0  0
  6 10  1  0  0  0  0
  7  8  2  0  0  0  0
  7  9  1  0  0  0  0
 10 17  1  0  0  0  0
 11 12  1  0  0  0  0
 11 13  2  0  0  0  0
 12 21  1  0  0  0  0
 12 22  1  0  0  0  0
 14 15  2  0  0  0  0
 14 16  1  0  0  0  0
 17 18  1  0  0  0  0
 17 23  1  0  0  0  0
 17 24  1  0  0  0  0
 18 10  1  0  0  0  0
 18 25  1  0  0  0  0
 18 26  1  0  0  0  0
M  CHG  4   7   1   9  -1  14   1  16  -1
M  END
>  <Mol_ID>
2666

>  <Formula>
C9H8N4O5

>  <MolWeight>
252.18362

>  <Cat>
S7829

>  <Name>
CB1954

>  <Synonyms>
Tretazicar, NSC 115829

>  <Target>
DNA alkylator

>  <Form>
free base

>  <CAS>
21919-05-1

>  <URL>
http://selleckchem.com/products/cb1954.html

$$$$
