CBA (TRPM4-IN-5)
 OpenBabel08302521313D

 33 34  0  0  0  0  0  0  0  0999 V2000
    1.3911    0.5616   -0.7329 O   0  0  0  0  0  0  0  0  0  0  0  0
    1.4704    2.8623    1.5925 O   0  0  0  0  0  0  0  0  0  0  0  0
   -2.5784    1.2317    2.4542 O   0  0  0  0  0  0  0  0  0  0  0  0
   -3.6096    1.2483    4.4225 O   0  0  0  0  0  0  0  0  0  0  0  0
    0.0062    1.2378    2.3284 N   0  0  0  0  0  0  0  0  0  0  0  0
   -0.0385    1.6851    3.6757 C   0  0  0  0  0  0  0  0  0  0  0  0
   -1.2579    1.7530    4.3717 C   0  0  0  0  0  0  0  0  0  0  0  0
    1.1417    2.0627    4.3378 C   0  0  0  0  0  0  0  0  0  0  0  0
    0.4657    1.4208   -0.0929 C   0  0  0  0  0  0  0  0  0  0  0  0
    0.7372    1.9009    1.3532 C   0  0  0  0  0  0  0  0  0  0  0  0
   -1.2835    2.2551    5.6847 C   0  0  0  0  0  0  0  0  0  0  0  0
    1.1091    2.5307    5.6541 C   0  0  0  0  0  0  0  0  0  0  0  0
   -0.1073    2.6448    6.3233 C   0  0  0  0  0  0  0  0  0  0  0  0
    2.6247    1.0396   -1.0754 C   0  0  0  0  0  0  0  0  0  0  0  0
   -2.5748    1.3835    3.8014 C   0  0  0  0  0  0  0  0  0  0  0  0
    3.1095    2.3236   -0.8351 C   0  0  0  0  0  0  0  0  0  0  0  0
    3.4679    0.1086   -1.6895 C   0  0  0  0  0  0  0  0  0  0  0  0
    4.4493    2.6350   -1.0850 C   0  0  0  0  0  0  0  0  0  0  0  0
    4.7996    0.4269   -1.9720 C   0  0  0  0  0  0  0  0  0  0  0  0
    5.2995    1.6820   -1.6375 C   0  0  0  0  0  0  0  0  0  0  0  0
   -3.5352    1.0945    2.2607 H   0  0  0  0  0  0  0  0  0  0  0  0
   -0.8588    0.8107    1.9979 H   0  0  0  0  0  0  0  0  0  0  0  0
    2.1049    1.9887    3.8378 H   0  0  0  0  0  0  0  0  0  0  0  0
    0.2585    2.3004   -0.7208 H   0  0  0  0  0  0  0  0  0  0  0  0
   -0.4792    0.8692   -0.0805 H   0  0  0  0  0  0  0  0  0  0  0  0
   -2.2315    2.3590    6.2164 H   0  0  0  0  0  0  0  0  0  0  0  0
    2.0322    2.8158    6.1510 H   0  0  0  0  0  0  0  0  0  0  0  0
   -0.1380    3.0348    7.3360 H   0  0  0  0  0  0  0  0  0  0  0  0
    2.4886    3.1118   -0.4288 H   0  0  0  0  0  0  0  0  0  0  0  0
    3.0911   -0.8802   -1.9381 H   0  0  0  0  0  0  0  0  0  0  0  0
    4.8256    3.6226   -0.8278 H   0  0  0  0  0  0  0  0  0  0  0  0
    5.4494   -0.3110   -2.4310 H   0  0  0  0  0  0  0  0  0  0  0  0
    6.3444    1.9214   -1.8087 H   0  0  0  0  0  0  0  0  0  0  0  0
  1  9  1  0  0  0  0
  1 14  1  0  0  0  0
  2 10  2  0  0  0  0
  3 15  1  0  0  0  0
  3 21  1  0  0  0  0
  4 15  2  0  0  0  0
  5  6  1  0  0  0  0
  5 10  1  0  0  0  0
  5 22  1  0  0  0  0
  6  7  2  0  0  0  0
  6  8  1  0  0  0  0
  7 11  1  0  0  0  0
  7 15  1  0  0  0  0
  8 12  2  0  0  0  0
  8 23  1  0  0  0  0
  9 10  1  0  0  0  0
  9 24  1  0  0  0  0
  9 25  1  0  0  0  0
 11 13  2  0  0  0  0
 11 26  1  0  0  0  0
 12 13  1  0  0  0  0
 12 27  1  0  0  0  0
 13 28  1  0  0  0  0
 14 16  2  0  0  0  0
 14 17  1  0  0  0  0
 16 18  1  0  0  0  0
 16 29  1  0  0  0  0
 17 19  2  0  0  0  0
 17 30  1  0  0  0  0
 18 20  2  0  0  0  0
 18 31  1  0  0  0  0
 19 20  1  0  0  0  0
 19 32  1  0  0  0  0
 20 33  1  0  0  0  0
M  END
>  <Mol_ID>
6011

>  <Formula>
C15H11Cl2NO4

>  <MolWeight>
340.15814

>  <Cat>
S6070

>  <Name>
CBA (TRPM4-IN-5)

>  <Synonyms>
Compound 5, TRPM4 inhibitor 5

>  <Target>
TRP Channel

>  <Form>
Free Base

>  <CAS>
351424-20-9

>  <URL>
http://www.selleckchem.com/products/cba-trpm4-in-1.html

$$$$
