CC-90009
 OpenBabel08302521313D

 50 53  0  0  0  0  0  0  0  0999 V2000
   -0.6145   -0.0607    0.9493 C   0  0  0  0  0  0  0  0  0  0  0  0
   -1.9372   -0.3232    1.2987 C   0  0  0  0  0  0  0  0  0  0  0  0
   -2.9022    0.6733    1.1651 C   0  0  0  0  0  0  0  0  0  0  0  0
   -2.5410    1.9411    0.6994 C   0  0  0  0  0  0  0  0  0  0  0  0
   -1.2069    2.2225    0.3599 C   0  0  0  0  0  0  0  0  0  0  0  0
   -0.2516    1.2014    0.4775 C   0  0  0  0  0  0  0  0  0  0  0  0
   -0.7786    3.6168   -0.0733 C   0  0  0  0  0  0  0  0  0  0  0  0
   -0.3665    4.4517    1.1810 C   0  0  0  0  0  0  0  0  0  0  0  0
    0.9996    4.5000    1.4741 N   0  0  0  0  0  0  0  0  0  0  0  0
    1.4405    5.3383    2.5693 C   0  0  0  0  0  0  0  0  0  0  0  0
    2.8474    5.0778    3.0598 C   0  0  0  0  0  0  0  0  0  0  0  0
    0.2772    3.5659   -0.9542 F   0  0  0  0  0  0  0  0  0  0  0  0
   -1.7695    4.2564   -0.7747 F   0  0  0  0  0  0  0  0  0  0  0  0
   -1.1917    5.0235    1.9023 O   0  0  0  0  0  0  0  0  0  0  0  0
    3.9776    5.6756    2.4663 C   0  0  0  0  0  0  0  0  0  0  0  0
    5.2205    5.3965    3.0195 C   0  0  0  0  0  0  0  0  0  0  0  0
    5.3317    4.6610    4.2009 C   0  0  0  0  0  0  0  0  0  0  0  0
    4.2576    4.0346    4.7864 C   0  0  0  0  0  0  0  0  0  0  0  0
    3.0155    4.2198    4.1796 C   0  0  0  0  0  0  0  0  0  0  0  0
    6.6025    5.5087    2.4480 C   0  0  0  0  0  0  0  0  0  0  0  0
    7.2738    4.3178    3.0217 N   0  0  0  0  0  0  0  0  0  0  0  0
    6.7440    4.2737    4.3384 C   0  0  0  0  0  0  0  0  0  0  0  0
    6.9662    3.0342    2.3185 C   0  0  3  0  0  0  0  0  0  0  0  0
    7.3079    3.9288    5.3554 O   0  0  0  0  0  0  0  0  0  0  0  0
    7.4896    2.9850    0.8851 C   0  0  0  0  0  0  0  0  0  0  0  0
    8.9984    2.8403    0.9046 C   0  0  0  0  0  0  0  0  0  0  0  0
    9.3526    1.5358    1.5720 C   0  0  0  0  0  0  0  0  0  0  0  0
    8.6792    1.2626    2.7341 N   0  0  0  0  0  0  0  0  0  0  0  0
    7.4155    1.7211    3.0136 C   0  0  0  0  0  0  0  0  0  0  0  0
    6.6503    1.0614    3.7188 O   0  0  0  0  0  0  0  0  0  0  0  0
   10.1570    0.7466    1.0895 O   0  0  0  0  0  0  0  0  0  0  0  0
    0.1385   -0.8376    1.0543 H   0  0  0  0  0  0  0  0  0  0  0  0
   -2.2147   -1.3031    1.6799 H   0  0  0  0  0  0  0  0  0  0  0  0
   -3.9354    0.4655    1.4348 H   0  0  0  0  0  0  0  0  0  0  0  0
   -3.3066    2.7119    0.6152 H   0  0  0  0  0  0  0  0  0  0  0  0
    0.7860    1.3875    0.2093 H   0  0  0  0  0  0  0  0  0  0  0  0
    1.6469    4.2551    0.7329 H   0  0  0  0  0  0  0  0  0  0  0  0
    1.3313    6.3878    2.2711 H   0  0  0  0  0  0  0  0  0  0  0  0
    0.7497    5.1814    3.4069 H   0  0  0  0  0  0  0  0  0  0  0  0
    3.8884    6.2864    1.5723 H   0  0  0  0  0  0  0  0  0  0  0  0
    4.4014    3.3325    5.6009 H   0  0  0  0  0  0  0  0  0  0  0  0
    2.1612    3.6688    4.5709 H   0  0  0  0  0  0  0  0  0  0  0  0
    6.6399    5.5236    1.3597 H   0  0  0  0  0  0  0  0  0  0  0  0
    7.1029    6.4062    2.8376 H   0  0  0  0  0  0  0  0  0  0  0  0
    5.8723    2.9399    2.2603 H   0  0  0  0  0  0  0  0  0  0  0  0
    7.0442    2.1137    0.3851 H   0  0  0  0  0  0  0  0  0  0  0  0
    7.1933    3.8589    0.3016 H   0  0  0  0  0  0  0  0  0  0  0  0
    9.3794    2.8355   -0.1210 H   0  0  0  0  0  0  0  0  0  0  0  0
    9.4842    3.6554    1.4507 H   0  0  0  0  0  0  0  0  0  0  0  0
    8.8777    0.3494    3.1228 H   0  0  0  0  0  0  0  0  0  0  0  0
  1  2  2  0  0  0  0
  1 32  1  0  0  0  0
  2  3  1  0  0  0  0
  2 33  1  0  0  0  0
  3  4  2  0  0  0  0
  3 34  1  0  0  0  0
  4  5  1  0  0  0  0
  4 35  1  0  0  0  0
  5  6  2  0  0  0  0
  5  7  1  0  0  0  0
  6  1  1  0  0  0  0
  6 36  1  0  0  0  0
  7  8  1  0  0  0  0
  7 12  1  0  0  0  0
  7 13  1  0  0  0  0
  8  9  1  0  0  0  0
  8 14  2  0  0  0  0
  9 10  1  0  0  0  0
  9 37  1  0  0  0  0
 10 11  1  0  0  0  0
 10 38  1  0  0  0  0
 10 39  1  0  0  0  0
 11 15  2  0  0  0  0
 15 16  1  0  0  0  0
 15 40  1  0  0  0  0
 16 17  2  0  0  0  0
 16 20  1  0  0  0  0
 17 18  1  0  0  0  0
 18 19  2  0  0  0  0
 18 41  1  0  0  0  0
 19 11  1  0  0  0  0
 19 42  1  0  0  0  0
 20 21  1  0  0  0  0
 20 43  1  0  0  0  0
 20 44  1  0  0  0  0
 21 22  1  0  0  0  0
 21 23  1  0  0  0  0
 22 17  1  0  0  0  0
 22 24  2  0  0  0  0
 23 25  1  0  0  0  0
 23 45  1  0  0  0  0
 25 26  1  0  0  0  0
 25 46  1  0  0  0  0
 25 47  1  0  0  0  0
 26 27  1  0  0  0  0
 26 48  1  0  0  0  0
 26 49  1  0  0  0  0
 27 28  1  0  0  0  0
 27 31  2  0  0  0  0
 28 29  1  0  0  0  0
 28 50  1  0  0  0  0
 29 23  1  0  0  0  0
 29 30  2  0  0  0  0
M  END
>  <Mol_ID>
5926

>  <Formula>
C22H18ClF2N3O4

>  <MolWeight>
461.8458264

>  <Cat>
S9832

>  <Name>
CC-90009

>  <Synonyms>
N/A

>  <Target>
E3 Ligase

>  <Form>
Free Base

>  <CAS>
1860875-51-9

>  <URL>
http://www.selleckchem.com/products/cc-90009.html

$$$$
