CD38 inhibitor 1 (compound 78c)
 OpenBabel08302521353D

 56 59  0  0  0  0  0  0  0  0999 V2000
    3.3385    0.4621    1.2483 C   0  0  0  0  0  0  0  0  0  0  0  0
    1.9506    0.4328    1.1126 C   0  0  0  0  0  0  0  0  0  0  0  0
    1.3508   -0.7713    0.6937 C   0  0  0  0  0  0  0  0  0  0  0  0
    2.1021   -1.9405    0.4168 C   0  0  0  0  0  0  0  0  0  0  0  0
    3.5058   -1.8749    0.5642 C   0  0  0  0  0  0  0  0  0  0  0  0
    4.1037   -0.6730    0.9779 C   0  0  0  0  0  0  0  0  0  0  0  0
    1.4729   -3.2229   -0.0339 C   0  0  0  0  0  0  0  0  0  0  0  0
    2.2936   -4.2485   -0.3024 C   0  0  0  0  0  0  0  0  0  0  0  0
    3.7526   -4.2064   -0.1493 C   0  0  0  0  0  0  0  0  0  0  0  0
    4.3098   -3.0210    0.2888 N   0  0  0  0  0  0  0  0  0  0  0  0
    0.0906   -3.2983   -0.1870 N   0  0  0  0  0  0  0  0  0  0  0  0
   -0.7333   -4.5053   -0.2890 C   0  0  2  0  0  0  0  0  0  0  0  0
   -1.6915   -4.3564   -1.4841 C   0  0  0  0  0  0  0  0  0  0  0  0
   -2.8234   -5.3902   -1.4873 C   0  0  0  0  0  0  0  0  0  0  0  0
   -3.5522   -5.4019   -0.1378 C   0  0  2  0  0  0  0  0  0  0  0  0
   -2.5402   -5.7713    0.9486 C   0  0  0  0  0  0  0  0  0  0  0  0
   -1.4641   -4.7039    1.0436 C   0  0  0  0  0  0  0  0  0  0  0  0
    5.7523   -2.9688    0.4515 C   0  0  0  0  0  0  0  0  0  0  0  0
    4.3926   -5.2241   -0.4143 O   0  0  0  0  0  0  0  0  0  0  0  0
    1.1739    1.6524    1.3829 C   0  0  0  0  0  0  0  0  0  0  0  0
    1.5214    2.9807    1.1849 C   0  0  0  0  0  0  0  0  0  0  0  0
    0.5889    3.9264    1.5645 N   0  0  0  0  0  0  0  0  0  0  0  0
   -0.4639    3.3138    2.0557 C   0  0  0  0  0  0  0  0  0  0  0  0
   -0.3952    1.6025    2.0923 S   0  0  0  0  0  0  0  0  0  0  0  0
   -4.6321   -6.3395   -0.1630 O   0  0  0  0  0  0  0  0  0  0  0  0
   -5.5464   -6.1351    0.9303 C   0  0  0  0  0  0  0  0  0  0  0  0
   -6.7106   -7.1253    0.8895 C   0  0  0  0  0  0  0  0  0  0  0  0
   -7.7055   -6.8078   -0.0855 O   0  0  0  0  0  0  0  0  0  0  0  0
   -7.2321   -6.9207   -1.4208 C   0  0  0  0  0  0  0  0  0  0  0  0
    3.8506    1.3667    1.5707 H   0  0  0  0  0  0  0  0  0  0  0  0
    0.2744   -0.7726    0.5626 H   0  0  0  0  0  0  0  0  0  0  0  0
    5.1790   -0.5818    1.0964 H   0  0  0  0  0  0  0  0  0  0  0  0
    1.9303   -5.2001   -0.6650 H   0  0  0  0  0  0  0  0  0  0  0  0
   -0.4282   -2.4980    0.1527 H   0  0  0  0  0  0  0  0  0  0  0  0
   -0.1294   -5.4009   -0.4689 H   0  0  0  0  0  0  0  0  0  0  0  0
   -2.1324   -3.3513   -1.4883 H   0  0  0  0  0  0  0  0  0  0  0  0
   -1.1178   -4.4403   -2.4164 H   0  0  0  0  0  0  0  0  0  0  0  0
   -3.5270   -5.1720   -2.3000 H   0  0  0  0  0  0  0  0  0  0  0  0
   -2.4205   -6.3881   -1.7065 H   0  0  0  0  0  0  0  0  0  0  0  0
   -3.9607   -4.3973    0.0355 H   0  0  0  0  0  0  0  0  0  0  0  0
   -3.0149   -5.8810    1.9266 H   0  0  0  0  0  0  0  0  0  0  0  0
   -2.0970   -6.7508    0.7236 H   0  0  0  0  0  0  0  0  0  0  0  0
   -0.7469   -4.9793    1.8261 H   0  0  0  0  0  0  0  0  0  0  0  0
   -1.9301   -3.7641    1.3691 H   0  0  0  0  0  0  0  0  0  0  0  0
    6.1687   -2.2294   -0.2395 H   0  0  0  0  0  0  0  0  0  0  0  0
    5.9945   -2.7089    1.4869 H   0  0  0  0  0  0  0  0  0  0  0  0
    6.2246   -3.9310    0.2341 H   0  0  0  0  0  0  0  0  0  0  0  0
    2.4568    3.3223    0.7570 H   0  0  0  0  0  0  0  0  0  0  0  0
   -1.3274    3.8554    2.4191 H   0  0  0  0  0  0  0  0  0  0  0  0
   -5.0170   -6.3003    1.8721 H   0  0  0  0  0  0  0  0  0  0  0  0
   -5.9238   -5.1071    0.9002 H   0  0  0  0  0  0  0  0  0  0  0  0
   -6.3591   -8.1505    0.7321 H   0  0  0  0  0  0  0  0  0  0  0  0
   -7.2199   -7.0933    1.8596 H   0  0  0  0  0  0  0  0  0  0  0  0
   -6.8032   -5.9666   -1.7392 H   0  0  0  0  0  0  0  0  0  0  0  0
   -6.4983   -7.7255   -1.5298 H   0  0  0  0  0  0  0  0  0  0  0  0
   -8.0864   -7.1453   -2.0644 H   0  0  0  0  0  0  0  0  0  0  0  0
  1  2  2  0  0  0  0
  1 30  1  0  0  0  0
  2  3  1  0  0  0  0
  2 20  1  0  0  0  0
  3  4  2  0  0  0  0
  3 31  1  0  0  0  0
  4  5  1  0  0  0  0
  4  7  1  0  0  0  0
  5  6  2  0  0  0  0
  6  1  1  0  0  0  0
  6 32  1  0  0  0  0
  7  8  2  0  0  0  0
  7 11  1  0  0  0  0
  8  9  1  0  0  0  0
  8 33  1  0  0  0  0
  9 10  1  0  0  0  0
  9 19  2  0  0  0  0
 10  5  1  0  0  0  0
 10 18  1  0  0  0  0
 11 34  1  0  0  0  0
 12 13  1  0  0  0  0
 12 11  1  0  0  0  0
 12 35  1  6  0  0  0
 13 14  1  0  0  0  0
 13 36  1  0  0  0  0
 13 37  1  0  0  0  0
 14 15  1  0  0  0  0
 14 38  1  0  0  0  0
 14 39  1  0  0  0  0
 15 16  1  0  0  0  0
 15 40  1  1  0  0  0
 15 25  1  0  0  0  0
 16 17  1  0  0  0  0
 16 41  1  0  0  0  0
 16 42  1  0  0  0  0
 17 12  1  0  0  0  0
 17 43  1  0  0  0  0
 17 44  1  0  0  0  0
 18 45  1  0  0  0  0
 18 46  1  0  0  0  0
 18 47  1  0  0  0  0
 20 21  2  0  0  0  0
 21 22  1  0  0  0  0
 21 48  1  0  0  0  0
 22 23  2  0  0  0  0
 23 24  1  0  0  0  0
 23 49  1  0  0  0  0
 24 20  1  0  0  0  0
 25 26  1  0  0  0  0
 26 27  1  0  0  0  0
 26 50  1  0  0  0  0
 26 51  1  0  0  0  0
 27 28  1  0  0  0  0
 27 52  1  0  0  0  0
 27 53  1  0  0  0  0
 28 29  1  0  0  0  0
 29 54  1  0  0  0  0
 29 55  1  0  0  0  0
 29 56  1  0  0  0  0
M  END
>  <Mol_ID>
6758

>  <Formula>
C22H27N3O3S

>  <MolWeight>
413.53308

>  <Cat>
S8960

>  <Name>
CD38 inhibitor 1 (compound 78c)

>  <Synonyms>
CD38-IN-78c, MDK-7553

>  <Target>
CD markers

>  <Form>
Free base

>  <CAS>
1700637-55-3

>  <URL>
http://www.selleckchem.com/products/cd38-inhibitor-1.html

$$$$
