CDD3505
 OpenBabel08302521453D

 44 47  0  0  0  0  0  0  0  0999 V2000
    0.0426    0.2726    1.0149 C   0  0  0  0  0  0  0  0  0  0  0  0
    0.4866   -0.9037    0.6216 N   0  0  0  0  0  0  0  0  0  0  0  0
    0.3968   -0.8825   -0.7512 C   0  0  0  0  0  0  0  0  0  0  0  0
   -0.1454    0.3111   -1.1824 C   0  0  0  0  0  0  0  0  0  0  0  0
   -0.2877    1.0893   -0.0435 N   0  0  0  0  0  0  0  0  0  0  0  0
   -0.7779    2.5132    0.0183 C   0  0  0  0  0  0  0  0  0  0  0  0
    0.6394    4.4482    3.7464 C   0  0  0  0  0  0  0  0  0  0  0  0
    1.0346    4.8681   -3.2853 C   0  0  0  0  0  0  0  0  0  0  0  0
   -5.2057    2.5523    0.2071 C   0  0  0  0  0  0  0  0  0  0  0  0
    1.4391    4.4536    2.6116 C   0  0  0  0  0  0  0  0  0  0  0  0
    1.0065    3.8238    1.4396 C   0  0  0  0  0  0  0  0  0  0  0  0
   -0.2449    3.1782    1.3607 C   0  0  0  0  0  0  0  0  0  0  0  0
   -1.0069    3.1430    2.5532 C   0  0  0  0  0  0  0  0  0  0  0  0
   -0.5808    3.7857    3.7202 C   0  0  0  0  0  0  0  0  0  0  0  0
   -0.2607    5.1394   -2.8671 C   0  0  0  0  0  0  0  0  0  0  0  0
   -0.8638    4.3616   -1.8701 C   0  0  0  0  0  0  0  0  0  0  0  0
   -0.1848    3.3043   -1.2346 C   0  0  0  0  0  0  0  0  0  0  0  0
    1.1319    3.0492   -1.7023 C   0  0  0  0  0  0  0  0  0  0  0  0
    1.7271    3.8108   -2.7141 C   0  0  0  0  0  0  0  0  0  0  0  0
   -4.5356    1.3531   -0.0078 C   0  0  0  0  0  0  0  0  0  0  0  0
   -3.1377    1.3257   -0.1050 C   0  0  0  0  0  0  0  0  0  0  0  0
   -2.3657    2.4985    0.0290 C   0  0  0  0  0  0  0  0  0  0  0  0
   -3.0843    3.6941    0.2835 C   0  0  0  0  0  0  0  0  0  0  0  0
   -4.4798    3.7262    0.3491 C   0  0  0  0  0  0  0  0  0  0  0  0
    0.8345   -1.9928   -1.5639 N   0  3  0  0  0  0  0  0  0  0  0  0
    0.7364   -1.8561   -2.7936 O   0  0  0  0  0  0  0  0  0  0  0  0
    1.2912   -2.9918   -0.9883 O   0  5  0  0  0  0  0  0  0  0  0  0
   -0.0514    0.5709    2.0507 H   0  0  0  0  0  0  0  0  0  0  0  0
   -0.3886    0.6722   -2.1730 H   0  0  0  0  0  0  0  0  0  0  0  0
    0.9697    4.9543    4.6493 H   0  0  0  0  0  0  0  0  0  0  0  0
    1.5016    5.4811   -4.0514 H   0  0  0  0  0  0  0  0  0  0  0  0
   -6.2902    2.5683    0.2771 H   0  0  0  0  0  0  0  0  0  0  0  0
    2.4025    4.9582    2.6282 H   0  0  0  0  0  0  0  0  0  0  0  0
    1.6828    3.8762    0.5932 H   0  0  0  0  0  0  0  0  0  0  0  0
   -1.9664    2.6288    2.5956 H   0  0  0  0  0  0  0  0  0  0  0  0
   -1.2096    3.7725    4.6073 H   0  0  0  0  0  0  0  0  0  0  0  0
   -0.8102    5.9678   -3.3085 H   0  0  0  0  0  0  0  0  0  0  0  0
   -1.8789    4.6385   -1.6162 H   0  0  0  0  0  0  0  0  0  0  0  0
    1.7438    2.2649   -1.2574 H   0  0  0  0  0  0  0  0  0  0  0  0
    2.7407    3.5876   -3.0379 H   0  0  0  0  0  0  0  0  0  0  0  0
   -5.1013    0.4276   -0.0920 H   0  0  0  0  0  0  0  0  0  0  0  0
   -2.6878    0.3482   -0.2576 H   0  0  0  0  0  0  0  0  0  0  0  0
   -2.5527    4.6299    0.4597 H   0  0  0  0  0  0  0  0  0  0  0  0
   -4.9937    4.6675    0.5277 H   0  0  0  0  0  0  0  0  0  0  0  0
  1  2  2  0  0  0  0
  1  5  1  0  0  0  0
  1 28  1  0  0  0  0
  2  3  1  0  0  0  0
  3  4  2  0  0  0  0
  3 25  1  0  0  0  0
  4  5  1  0  0  0  0
  4 29  1  0  0  0  0
  5  6  1  0  0  0  0
  6 12  1  0  0  0  0
  6 17  1  0  0  0  0
  6 22  1  0  0  0  0
  7 10  2  0  0  0  0
  7 14  1  0  0  0  0
  7 30  1  0  0  0  0
  8 15  2  0  0  0  0
  8 19  1  0  0  0  0
  8 31  1  0  0  0  0
  9 20  2  0  0  0  0
  9 24  1  0  0  0  0
  9 32  1  0  0  0  0
 10 11  1  0  0  0  0
 10 33  1  0  0  0  0
 11 12  2  0  0  0  0
 11 34  1  0  0  0  0
 12 13  1  0  0  0  0
 13 14  2  0  0  0  0
 13 35  1  0  0  0  0
 14 36  1  0  0  0  0
 15 16  1  0  0  0  0
 15 37  1  0  0  0  0
 16 17  2  0  0  0  0
 16 38  1  0  0  0  0
 17 18  1  0  0  0  0
 18 19  2  0  0  0  0
 18 39  1  0  0  0  0
 19 40  1  0  0  0  0
 20 21  1  0  0  0  0
 20 41  1  0  0  0  0
 21 22  2  0  0  0  0
 21 42  1  0  0  0  0
 22 23  1  0  0  0  0
 23 24  2  0  0  0  0
 23 43  1  0  0  0  0
 24 44  1  0  0  0  0
 25 26  2  0  0  0  0
 25 27  1  0  0  0  0
M  CHG  2  25   1  27  -1
M  END
>  <Mol_ID>
9349

>  <Formula>
C22H17N3O2

>  <MolWeight>
355.38928

>  <Cat>
S6606

>  <Name>
CDD3505

>  <Synonyms>
N/A

>  <Target>
P450 (e.g. CYP17)

>  <Form>
Free Base

>  <CAS>
173865-33-3

>  <URL>
http://www.selleck.cn/products/cdd3505.html

$$$$
