CDN1163
 OpenBabel08302521243D

 44 46  0  0  0  0  0  0  0  0999 V2000
    1.6016    0.0816   -0.0291 C   0  0  0  0  0  0  0  0  0  0  0  0
    0.6696    0.8248   -0.9460 C   0  0  0  0  0  0  0  0  0  0  0  0
   -0.7144    0.7423   -0.6592 C   0  0  0  0  0  0  0  0  0  0  0  0
   -1.6866    1.3492   -1.4705 C   0  0  0  0  0  0  0  0  0  0  0  0
   -1.2949    2.0669   -2.5917 C   0  0  0  0  0  0  0  0  0  0  0  0
    0.0760    2.1761   -2.8700 C   0  0  0  0  0  0  0  0  0  0  0  0
    1.0556    1.5676   -2.0588 C   0  0  0  0  0  0  0  0  0  0  0  0
    1.0888   -0.3890    0.9732 O   0  0  0  0  0  0  0  0  0  0  0  0
    2.9869   -0.0138   -0.3196 N   0  0  0  0  0  0  0  0  0  0  0  0
    6.0230    0.5318   -0.0093 N   0  0  0  0  0  0  0  0  0  0  0  0
    7.1530    1.0534    0.5524 C   0  0  0  0  0  0  0  0  0  0  0  0
    7.1130    1.3382    1.8894 C   0  0  0  0  0  0  0  0  0  0  0  0
    6.7348    0.2259    2.6111 C   0  0  0  0  0  0  0  0  0  0  0  0
    5.7328   -0.5793    2.0787 C   0  0  0  0  0  0  0  0  0  0  0  0
    5.2058   -1.6297    2.8467 C   0  0  0  0  0  0  0  0  0  0  0  0
    4.0686   -2.2896    2.4295 C   0  0  0  0  0  0  0  0  0  0  0  0
    3.3836   -1.7886    1.3300 C   0  0  0  0  0  0  0  0  0  0  0  0
    3.8836   -0.7062    0.5735 C   0  0  0  0  0  0  0  0  0  0  0  0
    5.2131   -0.2366    0.8103 C   0  0  0  0  0  0  0  0  0  0  0  0
    8.5412    0.5784    0.1071 C   0  0  0  0  0  0  0  0  0  0  0  0
   -2.1237    2.6742   -3.4960 O   0  0  0  0  0  0  0  0  0  0  0  0
   -3.4929    2.9251   -3.1423 C   0  0  0  0  0  0  0  0  0  0  0  0
   -3.5762    4.1477   -2.2321 C   0  0  0  0  0  0  0  0  0  0  0  0
   -4.2631    3.1959   -4.4366 C   0  0  0  0  0  0  0  0  0  0  0  0
   -1.0572    0.1841    0.2128 H   0  0  0  0  0  0  0  0  0  0  0  0
   -2.7293    1.2237   -1.1944 H   0  0  0  0  0  0  0  0  0  0  0  0
    0.3887    2.7499   -3.7404 H   0  0  0  0  0  0  0  0  0  0  0  0
    2.0984    1.6896   -2.3274 H   0  0  0  0  0  0  0  0  0  0  0  0
    3.4201    0.6732   -0.9245 H   0  0  0  0  0  0  0  0  0  0  0  0
    6.4636    2.2058    2.1163 H   0  0  0  0  0  0  0  0  0  0  0  0
    7.0767    0.1101    3.6325 H   0  0  0  0  0  0  0  0  0  0  0  0
    5.6808   -1.9191    3.7812 H   0  0  0  0  0  0  0  0  0  0  0  0
    3.6432   -3.1080    3.0099 H   0  0  0  0  0  0  0  0  0  0  0  0
    2.4234   -2.2347    1.0881 H   0  0  0  0  0  0  0  0  0  0  0  0
    9.2730    0.7655    0.9139 H   0  0  0  0  0  0  0  0  0  0  0  0
    8.5615   -0.5024   -0.0653 H   0  0  0  0  0  0  0  0  0  0  0  0
    8.9034    1.1213   -0.7660 H   0  0  0  0  0  0  0  0  0  0  0  0
   -3.9599    2.0528   -2.6734 H   0  0  0  0  0  0  0  0  0  0  0  0
   -3.0380    4.9959   -2.6698 H   0  0  0  0  0  0  0  0  0  0  0  0
   -4.6145    4.4440   -2.0525 H   0  0  0  0  0  0  0  0  0  0  0  0
   -3.1097    3.9450   -1.2632 H   0  0  0  0  0  0  0  0  0  0  0  0
   -4.2930    2.2945   -5.0590 H   0  0  0  0  0  0  0  0  0  0  0  0
   -5.2962    3.4994   -4.2315 H   0  0  0  0  0  0  0  0  0  0  0  0
   -3.7812    3.9771   -5.0348 H   0  0  0  0  0  0  0  0  0  0  0  0
  1  2  1  0  0  0  0
  1  8  2  0  0  0  0
  1  9  1  0  0  0  0
  2  3  2  0  0  0  0
  2  7  1  0  0  0  0
  3  4  1  0  0  0  0
  3 25  1  0  0  0  0
  4  5  2  0  0  0  0
  4 26  1  0  0  0  0
  5  6  1  0  0  0  0
  5 21  1  0  0  0  0
  6  7  2  0  0  0  0
  6 27  1  0  0  0  0
  7 28  1  0  0  0  0
  9 18  1  0  0  0  0
  9 29  1  0  0  0  0
 10 11  2  0  0  0  0
 10 19  1  0  0  0  0
 11 12  1  0  0  0  0
 11 20  1  0  0  0  0
 12 13  2  0  0  0  0
 12 30  1  0  0  0  0
 13 14  1  0  0  0  0
 13 31  1  0  0  0  0
 14 15  1  0  0  0  0
 14 19  2  0  0  0  0
 15 16  2  0  0  0  0
 15 32  1  0  0  0  0
 16 17  1  0  0  0  0
 16 33  1  0  0  0  0
 17 18  2  0  0  0  0
 17 34  1  0  0  0  0
 18 19  1  0  0  0  0
 20 35  1  0  0  0  0
 20 36  1  0  0  0  0
 20 37  1  0  0  0  0
 21 22  1  0  0  0  0
 22 23  1  0  0  0  0
 22 24  1  0  0  0  0
 22 38  1  0  0  0  0
 23 39  1  0  0  0  0
 23 40  1  0  0  0  0
 23 41  1  0  0  0  0
 24 42  1  0  0  0  0
 24 43  1  0  0  0  0
 24 44  1  0  0  0  0
M  END
>  <Mol_ID>
5006

>  <Formula>
C20H20N2O2

>  <MolWeight>
320.385

>  <Cat>
S6815

>  <Name>
CDN1163

>  <Synonyms>
N/A

>  <Target>
ATPase

>  <Form>
Free Base

>  <CAS>
892711-75-0

>  <URL>
http://www.selleckchem.com/products/cdn1163.html

$$$$
