Ceftizoxime sodium
 OpenBabel08302520343D

 37 39  0  0  0  0  0  0  0  0999 V2000
   -0.0594   -0.1150   -0.9042 N   0  0  0  0  0  0  0  0  0  0  0  0
   -0.1328    1.2071   -1.5031 C   0  0  1  0  0  0  0  0  0  0  0  0
   -0.9084    0.1386    0.1269 C   0  0  0  0  0  0  0  0  0  0  0  0
    0.9931   -0.9729   -1.0622 C   0  0  0  0  0  0  0  0  0  0  0  0
   -1.3814    1.4367   -0.5993 C   0  0  1  0  0  0  0  0  0  0  0  0
    1.4035    2.1112   -1.1250 S   0  0  0  0  0  0  0  0  0  0  0  0
   -1.1159   -0.3344    1.2155 O   0  0  0  0  0  0  0  0  0  0  0  0
    2.1356   -0.5215   -1.6216 C   0  0  0  0  0  0  0  0  0  0  0  0
    0.8789   -2.5013   -0.6724 C   0  0  0  0  0  0  0  0  0  0  0  0
   -1.4866    2.6808    0.2199 N   0  0  0  0  0  0  0  0  0  0  0  0
    2.4462    0.8939   -1.9975 C   0  0  0  0  0  0  0  0  0  0  0  0
   -0.3027   -2.9314   -0.5363 O   0  0  0  0  0  0  0  0  0  0  0  0
    1.9750   -3.1367   -0.6382 O   0  5  0  0  0  0  0  0  0  0  0  0
   -2.0430    3.8430   -0.2925 C   0  0  0  0  0  0  0  0  0  0  0  0
   -2.0190    5.0895    0.6244 C   0  0  0  0  0  0  0  0  0  0  0  0
   -2.5193    3.8980   -1.4097 O   0  0  0  0  0  0  0  0  0  0  0  0
   -0.8921    5.2882    1.5431 C   0  0  0  0  0  0  0  0  0  0  0  0
   -2.9347    6.0286    0.6469 N   0  0  0  0  0  0  0  0  0  0  0  0
   -0.7534    6.3723    2.3919 C   0  0  0  0  0  0  0  0  0  0  0  0
    0.1341    4.3556    1.6558 N   0  0  0  0  0  0  0  0  0  0  0  0
   -3.9849    5.8086   -0.2544 O   0  0  0  0  0  0  0  0  0  0  0  0
    0.6550    6.2022    3.3478 S   0  0  0  0  0  0  0  0  0  0  0  0
    1.0193    4.7351    2.5417 C   0  0  0  0  0  0  0  0  0  0  0  0
   -4.9280    6.8750   -0.1419 C   0  0  0  0  0  0  0  0  0  0  0  0
    2.1272    4.0371    2.8219 N   0  0  0  0  0  0  0  0  0  0  0  0
   -0.3741    1.1834   -2.5710 H   0  0  0  0  0  0  0  0  0  0  0  0
   -2.3193    1.2612   -1.1429 H   0  0  0  0  0  0  0  0  0  0  0  0
    2.9428   -1.2362   -1.7809 H   0  0  0  0  0  0  0  0  0  0  0  0
   -1.1247    2.6808    1.1740 H   0  0  0  0  0  0  0  0  0  0  0  0
    2.3268    1.0209   -3.0784 H   0  0  0  0  0  0  0  0  0  0  0  0
    3.4909    1.1121   -1.7516 H   0  0  0  0  0  0  0  0  0  0  0  0
   -1.4090    7.2234    2.4979 H   0  0  0  0  0  0  0  0  0  0  0  0
   -5.4033    6.8601    0.8452 H   0  0  0  0  0  0  0  0  0  0  0  0
   -4.4513    7.8477   -0.3136 H   0  0  0  0  0  0  0  0  0  0  0  0
   -5.7016    6.7308   -0.9024 H   0  0  0  0  0  0  0  0  0  0  0  0
    2.6435    4.2218    3.6709 H   0  0  0  0  0  0  0  0  0  0  0  0
    2.1760    3.0825    2.4792 H   0  0  0  0  0  0  0  0  0  0  0  0
  1  2  1  0  0  0  0
  1  3  1  0  0  0  0
  1  4  1  0  0  0  0
  2  5  1  0  0  0  0
  2  6  1  0  0  0  0
  2 26  1  6  0  0  0
  3  7  2  0  0  0  0
  3  5  1  0  0  0  0
  4  8  2  0  0  0  0
  4  9  1  0  0  0  0
  5 10  1  0  0  0  0
  5 27  1  6  0  0  0
  6 11  1  0  0  0  0
  8 11  1  0  0  0  0
  8 28  1  0  0  0  0
  9 12  2  0  0  0  0
  9 13  1  0  0  0  0
 10 14  1  0  0  0  0
 10 29  1  0  0  0  0
 11 30  1  0  0  0  0
 11 31  1  0  0  0  0
 14 15  1  0  0  0  0
 14 16  2  0  0  0  0
 15 17  1  0  0  0  0
 15 18  2  0  0  0  0
 17 19  2  0  0  0  0
 17 20  1  0  0  0  0
 18 21  1  0  0  0  0
 19 22  1  0  0  0  0
 19 32  1  0  0  0  0
 20 23  2  0  0  0  0
 21 24  1  0  0  0  0
 22 23  1  0  0  0  0
 23 25  1  0  0  0  0
 24 33  1  0  0  0  0
 24 34  1  0  0  0  0
 24 35  1  0  0  0  0
 25 36  1  0  0  0  0
 25 37  1  0  0  0  0
M  CHG  1  13  -1
M  END
>  <Mol_ID>
3375

>  <Formula>
C13H12N5NaO5S2

>  <MolWeight>
405.38465

>  <Cat>
S5719

>  <Name>
Ceftizoxime sodium

>  <Synonyms>
SKF-88373

>  <Target>
Antibiotics

>  <Form>
Sodium Salt

>  <CAS>
68401-82-1

>  <URL>
http://www.selleckchem.com/products/ceftizoxime-sodium.html

$$$$
