CELESTONE (betamethasone).cdx
 OpenBabel08302520382D

 57 60  0  0  0  0  0  0  0  0999 V2000
    1.2082    2.1000    0.0000 C   0  0  0  0  0  0  0  0  0  0  0  0
    1.2082    0.7000    0.0000 C   0  0  0  0  0  0  0  0  0  0  0  0
    2.4207    0.0000    0.0000 C   0  0  0  0  0  0  0  0  0  0  0  0
    3.6331    0.7000    0.0000 C   0  0  0  0  0  0  0  0  0  0  0  0
    3.6331    2.1000    0.0000 C   0  0  2  0  0  0  0  0  0  0  0  0
    2.4207    2.8000    0.0000 C   0  0  0  0  0  0  0  0  0  0  0  0
    0.0000    0.0024    0.0000 O   0  0  0  0  0  0  0  0  0  0  0  0
    4.8455    0.0000    0.0000 C   0  0  0  0  0  0  0  0  0  0  0  0
    6.0580    0.7000    0.0000 C   0  0  0  0  0  0  0  0  0  0  0  0
    6.0580    2.1000    0.0000 C   0  0  2  0  0  0  0  0  0  0  0  0
    4.8455    2.8000    0.0000 C   0  0  2  0  0  0  0  0  0  0  0  0
    7.2704    2.8000    0.0000 C   0  0  1  0  0  0  0  0  0  0  0  0
    7.2704    4.2000    0.0000 C   0  0  2  0  0  0  0  0  0  0  0  0
    6.0580    4.9000    0.0000 C   0  0  0  0  0  0  0  0  0  0  0  0
    4.8455    4.2000    0.0000 C   0  0  2  0  0  0  0  0  0  0  0  0
    8.6019    2.3674    0.0000 C   0  0  0  0  0  0  0  0  0  0  0  0
    9.4248    3.5000    0.0000 C   0  0  1  0  0  0  0  0  0  0  0  0
    8.6019    4.6326    0.0000 C   0  0  2  0  0  0  0  0  0  0  0  0
    3.6331    3.5000    0.0000 C   0  0  0  0  0  0  0  0  0  0  0  0
    4.8455    1.4000    0.0000 F   0  0  0  0  0  0  0  0  0  0  0  0
   10.8199    3.5000    0.0000 C   0  0  0  0  0  0  0  0  0  0  0  0
    3.6373    4.8976    0.0000 O   0  0  0  0  0  0  0  0  0  0  0  0
    7.2704    5.6000    0.0000 C   0  0  0  0  0  0  0  0  0  0  0  0
    8.9642    5.9849    0.0000 C   0  0  0  0  0  0  0  0  0  0  0  0
    7.9777    6.9714    0.0000 C   0  0  0  0  0  0  0  0  0  0  0  0
   10.3118    6.3460    0.0000 O   0  0  0  0  0  0  0  0  0  0  0  0
    6.6301    6.6103    0.0000 O   0  0  0  0  0  0  0  0  0  0  0  0
   10.0019    4.6326    0.0000 O   0  0  0  0  0  0  0  0  0  0  0  0
    0.3145    2.6160    0.0000 H   0  0  0  0  0  0  0  0  0  0  0  0
    2.4207   -1.0320    0.0000 H   0  0  0  0  0  0  0  0  0  0  0  0
    2.4207    3.8320    0.0000 H   0  0  0  0  0  0  0  0  0  0  0  0
    4.8455   -1.0700    0.0000 H   0  0  0  0  0  0  0  0  0  0  0  0
    5.7721   -0.5350    0.0000 H   0  0  0  0  0  0  0  0  0  0  0  0
    6.9846    0.1650    0.0000 H   0  0  0  0  0  0  0  0  0  0  0  0
    6.9847    1.2350    0.0000 H   0  0  0  0  0  0  0  0  0  0  0  0
    5.1314    1.5650    0.0000 H   0  0  0  0  0  0  0  0  0  0  0  0
    7.3823    1.7359    0.0000 H   0  0  0  0  0  0  0  0  0  0  0  0
    6.0580    5.9700    0.0000 H   0  0  0  0  0  0  0  0  0  0  0  0
    5.1314    5.4350    0.0000 H   0  0  0  0  0  0  0  0  0  0  0  0
    4.8455    5.2700    0.0000 H   0  0  0  0  0  0  0  0  0  0  0  0
    8.9326    1.3498    0.0000 H   0  0  0  0  0  0  0  0  0  0  0  0
    9.6587    2.2000    0.0000 H   0  0  0  0  0  0  0  0  0  0  0  0
    9.9106    2.5466    0.0000 H   0  0  0  0  0  0  0  0  0  0  0  0
    4.5597    4.0350    0.0000 H   0  0  0  0  0  0  0  0  0  0  0  0
    2.7065    4.0350    0.0000 H   0  0  0  0  0  0  0  0  0  0  0  0
    3.6331    4.5700    0.0000 H   0  0  0  0  0  0  0  0  0  0  0  0
   11.3549    2.5734    0.0000 H   0  0  0  0  0  0  0  0  0  0  0  0
   11.3549    4.4266    0.0000 H   0  0  0  0  0  0  0  0  0  0  0  0
   11.8899    3.5000    0.0000 H   0  0  0  0  0  0  0  0  0  0  0  0
    3.6373    5.8676    0.0000 H   0  0  0  0  0  0  0  0  0  0  0  0
    8.1970    6.1350    0.0000 H   0  0  0  0  0  0  0  0  0  0  0  0
    6.3438    6.1350    0.0000 H   0  0  0  0  0  0  0  0  0  0  0  0
    7.2704    6.6700    0.0000 H   0  0  0  0  0  0  0  0  0  0  0  0
    8.2546    8.0049    0.0000 H   0  0  0  0  0  0  0  0  0  0  0  0
    7.2211    7.7280    0.0000 H   0  0  0  0  0  0  0  0  0  0  0  0
    5.9442    7.2962    0.0000 H   0  0  0  0  0  0  0  0  0  0  0  0
   10.4869    3.7926    0.0000 H   0  0  0  0  0  0  0  0  0  0  0  0
  1  2  1  0  0  0  0
  1 29  1  0  0  0  0
  2  3  1  0  0  0  0
  2  7  2  0  0  0  0
  3  4  2  0  0  0  0
  3 30  1  0  0  0  0
  4  5  1  0  0  0  0
  4  8  1  0  0  0  0
  5  6  1  0  0  0  0
  5 19  1  1  0  0  0
  6  1  2  0  0  0  0
  6 31  1  0  0  0  0
  8  9  1  0  0  0  0
  8 32  1  0  0  0  0
  8 33  1  0  0  0  0
  9 34  1  0  0  0  0
  9 35  1  0  0  0  0
 10  9  1  0  0  0  0
 10 11  1  0  0  0  0
 10 12  1  0  0  0  0
 10 36  1  1  0  0  0
 11  5  1  0  0  0  0
 11 20  1  6  0  0  0
 12 13  1  0  0  0  0
 12 16  1  0  0  0  0
 12 37  1  6  0  0  0
 13 14  1  0  0  0  0
 13 23  1  1  0  0  0
 14 15  1  0  0  0  0
 14 38  1  0  0  0  0
 14 39  1  0  0  0  0
 15 11  1  0  0  0  0
 15 22  1  0  0  0  0
 15 40  1  6  0  0  0
 16 17  1  0  0  0  0
 16 41  1  0  0  0  0
 16 42  1  0  0  0  0
 17 18  1  0  0  0  0
 17 21  1  0  0  0  0
 17 43  1  6  0  0  0
 18 13  1  0  0  0  0
 18 24  1  1  0  0  0
 18 28  1  0  0  0  0
 19 44  1  0  0  0  0
 19 45  1  0  0  0  0
 19 46  1  0  0  0  0
 21 47  1  0  0  0  0
 21 48  1  0  0  0  0
 21 49  1  0  0  0  0
 22 50  1  0  0  0  0
 23 51  1  0  0  0  0
 23 52  1  0  0  0  0
 23 53  1  0  0  0  0
 24 25  1  0  0  0  0
 24 26  2  0  0  0  0
 25 27  1  0  0  0  0
 25 54  1  0  0  0  0
 25 55  1  0  0  0  0
 27 56  1  0  0  0  0
 28 57  1  0  0  0  0
M  END
>  <Mol_ID>
292

>  <Formula>
C22H29FO5

>  <MolWeight>
392.4610632

>  <Cat>
S1500

>  <Name>
Betamethasone

>  <Synonyms>
NSC-39470, SCH-4831

>  <Target>
Glucocorticoid Receptor

>  <Form>
Free Base

>  <CAS>
378-44-9

>  <URL>
http://selleckchem.com/products/Betamethasone-(Celestone).html

$$$$
