Celecoxib.cdx
 OpenBabel08302522043D

 40 42  0  0  0  0  0  0  0  0999 V2000
    1.3346   -0.2077    0.1618 C   0  0  0  0  0  0  0  0  0  0  0  0
    0.4764   -1.2551   -0.1959 C   0  0  0  0  0  0  0  0  0  0  0  0
   -0.8948   -1.0335   -0.2980 C   0  0  0  0  0  0  0  0  0  0  0  0
   -1.4102    0.2330   -0.0218 C   0  0  0  0  0  0  0  0  0  0  0  0
   -0.5698    1.2757    0.3846 C   0  0  0  0  0  0  0  0  0  0  0  0
    0.8073    1.0491    0.4986 C   0  0  0  0  0  0  0  0  0  0  0  0
   -3.1465    0.5136   -0.1991 S   0  0  0  0  0  0  0  0  0  0  0  0
    2.7480   -0.3975    0.1561 N   0  0  0  0  0  0  0  0  0  0  0  0
    3.5188   -1.2197   -0.6726 C   0  0  0  0  0  0  0  0  0  0  0  0
    4.7734   -1.2311   -0.0897 C   0  0  0  0  0  0  0  0  0  0  0  0
    4.7221   -0.3190    0.9920 C   0  0  0  0  0  0  0  0  0  0  0  0
    3.5143    0.2675    1.0582 N   0  0  0  0  0  0  0  0  0  0  0  0
    3.0715   -1.8836   -1.9083 C   0  0  0  0  0  0  0  0  0  0  0  0
    2.1762   -1.2612   -2.7901 C   0  0  0  0  0  0  0  0  0  0  0  0
    1.6640   -1.9411   -3.8976 C   0  0  0  0  0  0  0  0  0  0  0  0
    2.0862   -3.2400   -4.1851 C   0  0  0  0  0  0  0  0  0  0  0  0
    3.0454   -3.8371   -3.3596 C   0  0  0  0  0  0  0  0  0  0  0  0
    3.5288   -3.1681   -2.2289 C   0  0  0  0  0  0  0  0  0  0  0  0
    1.5329   -3.9837   -5.3637 C   0  0  0  0  0  0  0  0  0  0  0  0
    5.8432   -0.0033    1.9464 C   0  0  0  0  0  0  0  0  0  0  0  0
    6.9763   -0.6962    1.6386 F   0  0  0  0  0  0  0  0  0  0  0  0
    6.1852    1.3112    1.9431 F   0  0  0  0  0  0  0  0  0  0  0  0
    5.5347   -0.3340    3.2293 F   0  0  0  0  0  0  0  0  0  0  0  0
   -3.6061    0.9126    1.3648 N   0  0  0  0  0  0  0  0  0  0  0  0
   -3.3457    1.6944   -1.0020 O   0  0  0  0  0  0  0  0  0  0  0  0
   -3.8070   -0.7414   -0.4804 O   0  0  0  0  0  0  0  0  0  0  0  0
    0.8524   -2.2560   -0.3986 H   0  0  0  0  0  0  0  0  0  0  0  0
   -1.5474   -1.8507   -0.6034 H   0  0  0  0  0  0  0  0  0  0  0  0
   -0.9751    2.2619    0.5972 H   0  0  0  0  0  0  0  0  0  0  0  0
    1.4598    1.8685    0.7928 H   0  0  0  0  0  0  0  0  0  0  0  0
    5.6368   -1.7933   -0.4236 H   0  0  0  0  0  0  0  0  0  0  0  0
    1.8290   -0.2452   -2.6115 H   0  0  0  0  0  0  0  0  0  0  0  0
    0.9238   -1.4484   -4.5249 H   0  0  0  0  0  0  0  0  0  0  0  0
    3.4113   -4.8370   -3.5832 H   0  0  0  0  0  0  0  0  0  0  0  0
    4.2510   -3.6757   -1.5942 H   0  0  0  0  0  0  0  0  0  0  0  0
    2.3238   -4.1755   -6.0947 H   0  0  0  0  0  0  0  0  0  0  0  0
    1.0995   -4.9357   -5.0398 H   0  0  0  0  0  0  0  0  0  0  0  0
    0.7413   -3.4131   -5.8615 H   0  0  0  0  0  0  0  0  0  0  0  0
   -4.0988    1.8064    1.3551 H   0  0  0  0  0  0  0  0  0  0  0  0
   -4.1453    0.1501    1.7727 H   0  0  0  0  0  0  0  0  0  0  0  0
  1  2  2  0  0  0  0
  1  8  1  0  0  0  0
  2  3  1  0  0  0  0
  2 27  1  0  0  0  0
  3  4  2  0  0  0  0
  3 28  1  0  0  0  0
  4  5  1  0  0  0  0
  4  7  1  0  0  0  0
  5  6  2  0  0  0  0
  5 29  1  0  0  0  0
  6  1  1  0  0  0  0
  6 30  1  0  0  0  0
  7 24  1  0  0  0  0
  7 25  2  0  0  0  0
  7 26  2  0  0  0  0
  8  9  1  0  0  0  0
  9 10  2  0  0  0  0
  9 13  1  0  0  0  0
 10 11  1  0  0  0  0
 10 31  1  0  0  0  0
 11 12  2  0  0  0  0
 11 20  1  0  0  0  0
 12  8  1  0  0  0  0
 13 14  2  0  0  0  0
 14 15  1  0  0  0  0
 14 32  1  0  0  0  0
 15 16  2  0  0  0  0
 15 33  1  0  0  0  0
 16 17  1  0  0  0  0
 16 19  1  0  0  0  0
 17 18  2  0  0  0  0
 17 34  1  0  0  0  0
 18 13  1  0  0  0  0
 18 35  1  0  0  0  0
 19 36  1  0  0  0  0
 19 37  1  0  0  0  0
 19 38  1  0  0  0  0
 20 21  1  0  0  0  0
 20 22  1  0  0  0  0
 20 23  1  0  0  0  0
 24 39  1  0  0  0  0
 24 40  1  0  0  0  0
M  END
>  <Mol_ID>
145

>  <Formula>
C17H14F3N3O2S

>  <MolWeight>
381.3721696

>  <Cat>
S1261

>  <Name>
Celecoxib?(SC 58635)

>  <Synonyms>
Celebrex, Celebra,SC 58635

>  <Target>
COX

>  <Form>
free base

>  <CAS>
169590-42-5

>  <URL>
http://selleckchem.com/products/Celecoxib.html

$$$$
