Celiprolol hydrochloride
 OpenBabel08302520143D

 60 60  0  0  0  0  0  0  0  0999 V2000
    2.0792    2.4183   -2.9928 O   0  0  0  0  0  0  0  0  0  0  0  0
    1.8613    1.7835   -1.7244 C   0  0  3  0  0  0  0  0  0  0  0  0
    1.9412    2.8550   -0.5995 C   0  0  0  0  0  0  0  0  0  0  0  0
    1.6754    2.3146    0.7397 N   0  0  0  0  0  0  0  0  0  0  0  0
    1.8812    3.2125    1.8862 C   0  0  0  0  0  0  0  0  0  0  0  0
    0.9708    4.4485    1.8158 C   0  0  0  0  0  0  0  0  0  0  0  0
    1.4968    2.3998    3.1408 C   0  0  0  0  0  0  0  0  0  0  0  0
    3.3526    3.6264    2.0035 C   0  0  0  0  0  0  0  0  0  0  0  0
    0.4968    1.0904   -1.6874 C   0  0  0  0  0  0  0  0  0  0  0  0
    0.3347    0.0344   -2.6329 O   0  0  0  0  0  0  0  0  0  0  0  0
    0.5358   -1.2552   -2.2192 C   0  0  0  0  0  0  0  0  0  0  0  0
    0.2874   -1.8398   -0.9723 C   0  0  0  0  0  0  0  0  0  0  0  0
   -0.4148   -1.2045    0.1779 C   0  0  0  0  0  0  0  0  0  0  0  0
   -1.7641   -0.5719   -0.0375 C   0  0  0  0  0  0  0  0  0  0  0  0
    0.1031   -1.2433    1.2967 O   0  0  0  0  0  0  0  0  0  0  0  0
    0.6667   -3.1770   -0.7343 C   0  0  0  0  0  0  0  0  0  0  0  0
    1.2143   -3.9740   -1.7395 C   0  0  0  0  0  0  0  0  0  0  0  0
    1.5854   -5.3260   -1.5407 N   0  0  0  0  0  0  0  0  0  0  0  0
    1.7789   -5.9315   -0.3146 C   0  0  0  0  0  0  0  0  0  0  0  0
    1.9976   -7.3088   -0.3465 N   0  0  0  0  0  0  0  0  0  0  0  0
    2.2552   -7.9653    0.9362 C   0  0  0  0  0  0  0  0  0  0  0  0
    0.9683   -8.3948    1.6252 C   0  0  0  0  0  0  0  0  0  0  0  0
    1.9316   -8.1681   -1.5276 C   0  0  0  0  0  0  0  0  0  0  0  0
    3.2934   -8.2988   -2.1912 C   0  0  0  0  0  0  0  0  0  0  0  0
    1.7727   -5.3284    0.7557 O   0  0  0  0  0  0  0  0  0  0  0  0
    1.3668   -3.4217   -3.0105 C   0  0  0  0  0  0  0  0  0  0  0  0
    1.0425   -2.0749   -3.2394 C   0  0  0  0  0  0  0  0  0  0  0  0
    1.2202    2.6938   -3.3516 H   0  0  0  0  0  0  0  0  0  0  0  0
    2.6616    1.0458   -1.5983 H   0  0  0  0  0  0  0  0  0  0  0  0
    2.9386    3.3037   -0.6523 H   0  0  0  0  0  0  0  0  0  0  0  0
    1.2285    3.6551   -0.8347 H   0  0  0  0  0  0  0  0  0  0  0  0
    0.7282    1.9461    0.8078 H   0  0  0  0  0  0  0  0  0  0  0  0
   -0.0843    4.1619    1.7305 H   0  0  0  0  0  0  0  0  0  0  0  0
    1.0720    5.0595    2.7201 H   0  0  0  0  0  0  0  0  0  0  0  0
    1.2145    5.0895    0.9625 H   0  0  0  0  0  0  0  0  0  0  0  0
    2.0937    1.4835    3.2247 H   0  0  0  0  0  0  0  0  0  0  0  0
    1.6572    2.9831    4.0548 H   0  0  0  0  0  0  0  0  0  0  0  0
    0.4397    2.1053    3.1229 H   0  0  0  0  0  0  0  0  0  0  0  0
    4.0111    2.7494    1.9875 H   0  0  0  0  0  0  0  0  0  0  0  0
    3.6571    4.2923    1.1897 H   0  0  0  0  0  0  0  0  0  0  0  0
    3.5363    4.1586    2.9430 H   0  0  0  0  0  0  0  0  0  0  0  0
    0.3372    0.7480   -0.6786 H   0  0  0  0  0  0  0  0  0  0  0  0
   -0.2893    1.8205   -1.9117 H   0  0  0  0  0  0  0  0  0  0  0  0
   -2.4776   -1.3147   -0.3962 H   0  0  0  0  0  0  0  0  0  0  0  0
   -2.1160   -0.1809    0.9224 H   0  0  0  0  0  0  0  0  0  0  0  0
   -1.7281    0.2678   -0.7271 H   0  0  0  0  0  0  0  0  0  0  0  0
    0.4892   -3.5814    0.2593 H   0  0  0  0  0  0  0  0  0  0  0  0
    1.9238   -5.8223   -2.3462 H   0  0  0  0  0  0  0  0  0  0  0  0
    2.9098   -8.8293    0.7715 H   0  0  0  0  0  0  0  0  0  0  0  0
    2.8018   -7.2807    1.5965 H   0  0  0  0  0  0  0  0  0  0  0  0
    0.4458   -9.1589    1.0399 H   0  0  0  0  0  0  0  0  0  0  0  0
    1.1863   -8.8114    2.6130 H   0  0  0  0  0  0  0  0  0  0  0  0
    0.2826   -7.5504    1.7549 H   0  0  0  0  0  0  0  0  0  0  0  0
    1.5644   -9.1558   -1.2259 H   0  0  0  0  0  0  0  0  0  0  0  0
    1.2037   -7.7672   -2.2406 H   0  0  0  0  0  0  0  0  0  0  0  0
    4.0174   -8.7601   -1.5111 H   0  0  0  0  0  0  0  0  0  0  0  0
    3.2241   -8.9210   -3.0885 H   0  0  0  0  0  0  0  0  0  0  0  0
    3.6903   -7.3206   -2.4801 H   0  0  0  0  0  0  0  0  0  0  0  0
    1.7648   -4.0071   -3.8352 H   0  0  0  0  0  0  0  0  0  0  0  0
    1.2097   -1.6518   -4.2296 H   0  0  0  0  0  0  0  0  0  0  0  0
  1  2  1  0  0  0  0
  1 28  1  0  0  0  0
  2  3  1  0  0  0  0
  2  9  1  0  0  0  0
  2 29  1  0  0  0  0
  3  4  1  0  0  0  0
  3 30  1  0  0  0  0
  3 31  1  0  0  0  0
  4  5  1  0  0  0  0
  4 32  1  0  0  0  0
  5  6  1  0  0  0  0
  5  7  1  0  0  0  0
  5  8  1  0  0  0  0
  6 33  1  0  0  0  0
  6 34  1  0  0  0  0
  6 35  1  0  0  0  0
  7 36  1  0  0  0  0
  7 37  1  0  0  0  0
  7 38  1  0  0  0  0
  8 39  1  0  0  0  0
  8 40  1  0  0  0  0
  8 41  1  0  0  0  0
  9 10  1  0  0  0  0
  9 42  1  0  0  0  0
  9 43  1  0  0  0  0
 10 11  1  0  0  0  0
 11 12  2  0  0  0  0
 11 27  1  0  0  0  0
 12 13  1  0  0  0  0
 12 16  1  0  0  0  0
 13 14  1  0  0  0  0
 13 15  2  0  0  0  0
 14 44  1  0  0  0  0
 14 45  1  0  0  0  0
 14 46  1  0  0  0  0
 16 17  2  0  0  0  0
 16 47  1  0  0  0  0
 17 18  1  0  0  0  0
 17 26  1  0  0  0  0
 18 19  1  0  0  0  0
 18 48  1  0  0  0  0
 19 20  1  0  0  0  0
 19 25  2  0  0  0  0
 20 21  1  0  0  0  0
 20 23  1  0  0  0  0
 21 22  1  0  0  0  0
 21 49  1  0  0  0  0
 21 50  1  0  0  0  0
 22 51  1  0  0  0  0
 22 52  1  0  0  0  0
 22 53  1  0  0  0  0
 23 24  1  0  0  0  0
 23 54  1  0  0  0  0
 23 55  1  0  0  0  0
 24 56  1  0  0  0  0
 24 57  1  0  0  0  0
 24 58  1  0  0  0  0
 26 27  2  0  0  0  0
 26 59  1  0  0  0  0
 27 60  1  0  0  0  0
M  END
>  <Mol_ID>
3184

>  <Formula>
C20H34ClN3O4

>  <MolWeight>
415.95466

>  <Cat>
S5923

>  <Name>
Celiprolol hydrochloride

>  <Synonyms>
N/A

>  <Target>
Adrenergic Receptor

>  <Form>
hydrochloride

>  <CAS>
57470-78-7

>  <URL>
http://www.selleckchem.com/products/celiprolol-hydrochloride.html

$$$$
