CeMMEC13.cdx
 OpenBabel08302520433D

 41 44  0  0  0  0  0  0  0  0999 V2000
    0.4492    0.4763   -0.0552 C   0  0  0  0  0  0  0  0  0  0  0  0
    1.3805    1.5259   -0.1051 C   0  0  0  0  0  0  0  0  0  0  0  0
    2.7363    1.2788   -0.3091 C   0  0  0  0  0  0  0  0  0  0  0  0
    3.1726   -0.0235   -0.5034 C   0  0  0  0  0  0  0  0  0  0  0  0
    2.2571   -1.0802   -0.4759 C   0  0  0  0  0  0  0  0  0  0  0  0
    0.8951   -0.8619   -0.2073 C   0  0  0  0  0  0  0  0  0  0  0  0
   -0.0959   -1.9525   -0.1140 C   0  0  0  0  0  0  0  0  0  0  0  0
   -1.3855   -1.6450    0.0899 C   0  0  0  0  0  0  0  0  0  0  0  0
   -1.8821   -0.2652    0.2045 C   0  0  0  0  0  0  0  0  0  0  0  0
   -0.9441    0.7469    0.1182 N   0  0  0  0  0  0  0  0  0  0  0  0
    0.1133   -3.4353   -0.2732 C   0  0  0  0  0  0  0  0  0  0  0  0
    1.2728   -3.9543    0.2665 N   0  0  0  0  0  0  0  0  0  0  0  0
   -0.7743   -4.1012   -0.8027 O   0  0  0  0  0  0  0  0  0  0  0  0
    1.6568   -5.3210    0.2687 C   0  0  0  0  0  0  0  0  0  0  0  0
    0.9568   -6.3308   -0.4017 C   0  0  0  0  0  0  0  0  0  0  0  0
    1.3280   -7.6706   -0.2627 C   0  0  0  0  0  0  0  0  0  0  0  0
    2.4380   -8.0165    0.5071 C   0  0  0  0  0  0  0  0  0  0  0  0
    3.1741   -7.0181    1.1382 C   0  0  0  0  0  0  0  0  0  0  0  0
    2.7897   -5.6761    1.0146 C   0  0  0  0  0  0  0  0  0  0  0  0
    0.5456   -8.5958   -0.9068 O   0  0  0  0  0  0  0  0  0  0  0  0
    0.7253   -9.9006   -0.3498 C   0  0  0  0  0  0  0  0  0  0  0  0
    2.2040  -10.2182   -0.1997 C   0  0  0  0  0  0  0  0  0  0  0  0
    2.8469   -9.3098    0.7035 O   0  0  0  0  0  0  0  0  0  0  0  0
   -3.0855   -0.0902    0.3682 O   0  0  0  0  0  0  0  0  0  0  0  0
   -1.4267    2.1208    0.1409 C   0  0  0  0  0  0  0  0  0  0  0  0
    1.0793    2.5637    0.0152 H   0  0  0  0  0  0  0  0  0  0  0  0
    3.4429    2.1051   -0.3348 H   0  0  0  0  0  0  0  0  0  0  0  0
    4.2267   -0.2174   -0.6881 H   0  0  0  0  0  0  0  0  0  0  0  0
    2.6475   -2.0700   -0.6936 H   0  0  0  0  0  0  0  0  0  0  0  0
   -2.1670   -2.3972    0.1549 H   0  0  0  0  0  0  0  0  0  0  0  0
    1.8497   -3.3316    0.8155 H   0  0  0  0  0  0  0  0  0  0  0  0
    0.0935   -6.1192   -1.0235 H   0  0  0  0  0  0  0  0  0  0  0  0
    4.0425   -7.2846    1.7348 H   0  0  0  0  0  0  0  0  0  0  0  0
    3.3796   -4.9220    1.5284 H   0  0  0  0  0  0  0  0  0  0  0  0
    0.2517  -10.6189   -1.0261 H   0  0  0  0  0  0  0  0  0  0  0  0
    0.2020   -9.9458    0.6134 H   0  0  0  0  0  0  0  0  0  0  0  0
    2.3301  -11.2289    0.2016 H   0  0  0  0  0  0  0  0  0  0  0  0
    2.7223  -10.1671   -1.1650 H   0  0  0  0  0  0  0  0  0  0  0  0
   -1.0033    2.6422    1.0067 H   0  0  0  0  0  0  0  0  0  0  0  0
   -1.1416    2.6234   -0.7885 H   0  0  0  0  0  0  0  0  0  0  0  0
   -2.5165    2.1723    0.2193 H   0  0  0  0  0  0  0  0  0  0  0  0
  1  2  2  0  0  0  0
  2  3  1  0  0  0  0
  2 26  1  0  0  0  0
  3  4  2  0  0  0  0
  3 27  1  0  0  0  0
  4  5  1  0  0  0  0
  4 28  1  0  0  0  0
  5  6  2  0  0  0  0
  5 29  1  0  0  0  0
  6  1  1  0  0  0  0
  6  7  1  0  0  0  0
  7  8  2  0  0  0  0
  7 11  1  0  0  0  0
  8  9  1  0  0  0  0
  8 30  1  0  0  0  0
  9 10  1  0  0  0  0
  9 24  2  0  0  0  0
 10  1  1  0  0  0  0
 10 25  1  0  0  0  0
 11 12  1  0  0  0  0
 11 13  2  0  0  0  0
 12 14  1  0  0  0  0
 12 31  1  0  0  0  0
 14 15  2  0  0  0  0
 15 16  1  0  0  0  0
 15 32  1  0  0  0  0
 16 17  2  0  0  0  0
 16 20  1  0  0  0  0
 17 18  1  0  0  0  0
 18 19  2  0  0  0  0
 18 33  1  0  0  0  0
 19 14  1  0  0  0  0
 19 34  1  0  0  0  0
 20 21  1  0  0  0  0
 21 22  1  0  0  0  0
 21 35  1  0  0  0  0
 21 36  1  0  0  0  0
 22 23  1  0  0  0  0
 22 37  1  0  0  0  0
 22 38  1  0  0  0  0
 23 17  1  0  0  0  0
 25 39  1  0  0  0  0
 25 40  1  0  0  0  0
 25 41  1  0  0  0  0
M  END
>  <Mol_ID>
4064

>  <Formula>
C19H16N2O4

>  <MolWeight>
336.34134

>  <Cat>
S8329

>  <Name>
CeMMEC13

>  <Synonyms>
N/A

>  <Target>
DNA/RNA Synthesis

>  <Form>
free base

>  <CAS>
1790895-25-8

>  <URL>
http://selleckchem.com/products/cemmec13.html

$$$$
