CeMMEC1.cdx
 OpenBabel08302520433D

 41 44  0  0  0  0  0  0  0  0999 V2000
    0.4645    0.4257   -0.0255 C   0  0  0  0  0  0  0  0  0  0  0  0
    1.3762    1.4892   -0.1036 C   0  0  0  0  0  0  0  0  0  0  0  0
    2.7106    1.2426   -0.4010 C   0  0  0  0  0  0  0  0  0  0  0  0
    3.1249   -0.0596   -0.6605 C   0  0  0  0  0  0  0  0  0  0  0  0
    2.2139   -1.1240   -0.5818 C   0  0  0  0  0  0  0  0  0  0  0  0
    0.8781   -0.9108   -0.2114 C   0  0  0  0  0  0  0  0  0  0  0  0
   -0.1203   -1.9894   -0.0543 C   0  0  0  0  0  0  0  0  0  0  0  0
   -1.4062   -1.6482    0.1087 C   0  0  0  0  0  0  0  0  0  0  0  0
   -1.8481   -0.3386    0.1933 N   0  0  0  0  0  0  0  0  0  0  0  0
   -0.9735    0.7457    0.1726 C   0  0  0  0  0  0  0  0  0  0  0  0
   -1.3386    1.9137    0.2769 O   0  0  0  0  0  0  0  0  0  0  0  0
   -3.2720   -0.0570    0.2526 C   0  0  0  0  0  0  0  0  0  0  0  0
    0.1036   -3.4803   -0.0727 C   0  0  0  0  0  0  0  0  0  0  0  0
    1.3101   -3.9227    0.4385 N   0  0  0  0  0  0  0  0  0  0  0  0
   -0.8081   -4.2156   -0.4538 O   0  0  0  0  0  0  0  0  0  0  0  0
    1.7192   -5.2745    0.5650 C   0  0  0  0  0  0  0  0  0  0  0  0
    1.0263   -6.3504    0.0012 C   0  0  0  0  0  0  0  0  0  0  0  0
    1.4218   -7.6655    0.2566 C   0  0  0  0  0  0  0  0  0  0  0  0
    2.5449   -7.9226    1.0418 C   0  0  0  0  0  0  0  0  0  0  0  0
    3.2734   -6.8588    1.5675 C   0  0  0  0  0  0  0  0  0  0  0  0
    2.8683   -5.5399    1.3219 C   0  0  0  0  0  0  0  0  0  0  0  0
    0.6494   -8.6563   -0.2954 O   0  0  0  0  0  0  0  0  0  0  0  0
    0.8587   -9.9048    0.3699 C   0  0  0  0  0  0  0  0  0  0  0  0
    2.3439  -10.1812    0.5372 C   0  0  0  0  0  0  0  0  0  0  0  0
    2.9751   -9.1859    1.3522 O   0  0  0  0  0  0  0  0  0  0  0  0
    1.0384    2.5139    0.0485 H   0  0  0  0  0  0  0  0  0  0  0  0
    3.4151    2.0661   -0.4657 H   0  0  0  0  0  0  0  0  0  0  0  0
    4.1581   -0.2507   -0.9407 H   0  0  0  0  0  0  0  0  0  0  0  0
    2.5795   -2.1129   -0.8507 H   0  0  0  0  0  0  0  0  0  0  0  0
   -2.1886   -2.4019    0.1969 H   0  0  0  0  0  0  0  0  0  0  0  0
   -3.4776    0.6353    1.0726 H   0  0  0  0  0  0  0  0  0  0  0  0
   -3.5697    0.4178   -0.6882 H   0  0  0  0  0  0  0  0  0  0  0  0
   -3.8613   -0.9696    0.3961 H   0  0  0  0  0  0  0  0  0  0  0  0
    1.9023   -3.2366    0.8872 H   0  0  0  0  0  0  0  0  0  0  0  0
    0.1543   -6.2079   -0.6281 H   0  0  0  0  0  0  0  0  0  0  0  0
    4.1518   -7.0563    2.1764 H   0  0  0  0  0  0  0  0  0  0  0  0
    3.4521   -4.7325    1.7563 H   0  0  0  0  0  0  0  0  0  0  0  0
    0.3958  -10.6869   -0.2408 H   0  0  0  0  0  0  0  0  0  0  0  0
    0.3403   -9.8778    1.3363 H   0  0  0  0  0  0  0  0  0  0  0  0
    2.4899  -11.1504    1.0252 H   0  0  0  0  0  0  0  0  0  0  0  0
    2.8559  -10.2066   -0.4321 H   0  0  0  0  0  0  0  0  0  0  0  0
  1  2  2  0  0  0  0
  2  3  1  0  0  0  0
  2 26  1  0  0  0  0
  3  4  2  0  0  0  0
  3 27  1  0  0  0  0
  4  5  1  0  0  0  0
  4 28  1  0  0  0  0
  5  6  2  0  0  0  0
  5 29  1  0  0  0  0
  6  1  1  0  0  0  0
  6  7  1  0  0  0  0
  7  8  2  0  0  0  0
  7 13  1  0  0  0  0
  8  9  1  0  0  0  0
  8 30  1  0  0  0  0
  9 10  1  0  0  0  0
  9 12  1  0  0  0  0
 10  1  1  0  0  0  0
 10 11  2  0  0  0  0
 12 31  1  0  0  0  0
 12 32  1  0  0  0  0
 12 33  1  0  0  0  0
 13 14  1  0  0  0  0
 13 15  2  0  0  0  0
 14 16  1  0  0  0  0
 14 34  1  0  0  0  0
 16 17  2  0  0  0  0
 17 18  1  0  0  0  0
 17 35  1  0  0  0  0
 18 19  2  0  0  0  0
 18 22  1  0  0  0  0
 19 20  1  0  0  0  0
 20 21  2  0  0  0  0
 20 36  1  0  0  0  0
 21 16  1  0  0  0  0
 21 37  1  0  0  0  0
 22 23  1  0  0  0  0
 23 24  1  0  0  0  0
 23 38  1  0  0  0  0
 23 39  1  0  0  0  0
 24 25  1  0  0  0  0
 24 40  1  0  0  0  0
 24 41  1  0  0  0  0
 25 19  1  0  0  0  0
M  END
>  <Mol_ID>
4093

>  <Formula>
C19H17ClN2O4

>  <MolWeight>
372.80228

>  <Cat>
S8328

>  <Name>
CeMMEC1 HCl

>  <Synonyms>
N/A

>  <Target>
DNA/RNA Synthesis

>  <Form>
hydrochloride

>  <CAS>
2095432-53-2

>  <URL>
http://selleckchem.com/products/cemmec1.html

$$$$
