CEPHALEXIN (cephalexin).cdx
 OpenBabel08302521393D

 41 43  0  0  0  0  0  0  0  0999 V2000
   -5.2409    0.7845    3.3216 C   0  0  0  0  0  0  0  0  0  0  0  0
   -6.0749   -0.1227    2.6724 C   0  0  0  0  0  0  0  0  0  0  0  0
   -5.8174   -0.4887    1.3486 C   0  0  0  0  0  0  0  0  0  0  0  0
   -4.7142    0.0411    0.6583 C   0  0  0  0  0  0  0  0  0  0  0  0
   -3.9002    0.9766    1.3193 C   0  0  0  0  0  0  0  0  0  0  0  0
   -4.1574    1.3377    2.6441 C   0  0  0  0  0  0  0  0  0  0  0  0
   -4.4579   -0.3648   -0.7841 C   0  0  2  0  0  0  0  0  0  0  0  0
   -2.9515   -0.5181   -1.1221 C   0  0  0  0  0  0  0  0  0  0  0  0
   -2.5028    0.2504   -2.1794 N   0  0  0  0  0  0  0  0  0  0  0  0
   -2.1884   -1.2538   -0.4964 O   0  0  0  0  0  0  0  0  0  0  0  0
   -5.1116    0.5962   -1.7091 N   0  0  0  0  0  0  0  0  0  0  0  0
   -1.0853    0.1903   -2.5982 C   0  0  2  0  0  0  0  0  0  0  0  0
   -0.5904    1.0701   -3.7831 C   0  0  0  0  0  0  0  0  0  0  0  0
    0.0331   -0.0152   -4.3102 N   0  0  0  0  0  0  0  0  0  0  0  0
   -0.6489   -1.0049   -3.5021 C   0  0  2  0  0  0  0  0  0  0  0  0
   -1.9164   -1.7807   -4.5491 S   0  0  0  0  0  0  0  0  0  0  0  0
   -0.7049   -2.4240   -5.7392 C   0  0  0  0  0  0  0  0  0  0  0  0
    0.3511   -1.4242   -6.1751 C   0  0  0  0  0  0  0  0  0  0  0  0
    0.6017   -0.2578   -5.5248 C   0  0  0  0  0  0  0  0  0  0  0  0
   -0.7228    2.2130   -4.1510 O   0  0  0  0  0  0  0  0  0  0  0  0
    1.5302    0.7913   -6.0588 C   0  0  0  0  0  0  0  0  0  0  0  0
    1.8491    0.9831   -7.2180 O   0  0  0  0  0  0  0  0  0  0  0  0
    2.0615    1.5344   -5.0661 O   0  0  0  0  0  0  0  0  0  0  0  0
    1.0641   -1.8840   -7.4283 C   0  0  0  0  0  0  0  0  0  0  0  0
   -5.4336    1.0591    4.3556 H   0  0  0  0  0  0  0  0  0  0  0  0
   -6.9237   -0.5506    3.2001 H   0  0  0  0  0  0  0  0  0  0  0  0
   -6.4816   -1.2002    0.8625 H   0  0  0  0  0  0  0  0  0  0  0  0
   -3.0442    1.4230    0.8174 H   0  0  0  0  0  0  0  0  0  0  0  0
   -3.5058    2.0464    3.1494 H   0  0  0  0  0  0  0  0  0  0  0  0
   -4.8899   -1.3570   -0.9688 H   0  0  0  0  0  0  0  0  0  0  0  0
   -3.2261    0.7000   -2.7385 H   0  0  0  0  0  0  0  0  0  0  0  0
   -6.1181    0.5337   -1.5406 H   0  0  0  0  0  0  0  0  0  0  0  0
   -4.8622    1.5378   -1.4044 H   0  0  0  0  0  0  0  0  0  0  0  0
   -0.4309    0.3346   -1.7261 H   0  0  0  0  0  0  0  0  0  0  0  0
    0.0287   -1.7066   -3.0050 H   0  0  0  0  0  0  0  0  0  0  0  0
   -1.2827   -2.7438   -6.6141 H   0  0  0  0  0  0  0  0  0  0  0  0
   -0.2242   -3.3115   -5.3154 H   0  0  0  0  0  0  0  0  0  0  0  0
    2.5758    2.2249   -5.5314 H   0  0  0  0  0  0  0  0  0  0  0  0
    1.4011   -2.9197   -7.2966 H   0  0  0  0  0  0  0  0  0  0  0  0
    0.3853   -1.8551   -8.2866 H   0  0  0  0  0  0  0  0  0  0  0  0
    1.9592   -1.3113   -7.6738 H   0  0  0  0  0  0  0  0  0  0  0  0
  1  2  2  0  0  0  0
  1 25  1  0  0  0  0
  2  3  1  0  0  0  0
  2 26  1  0  0  0  0
  3  4  2  0  0  0  0
  3 27  1  0  0  0  0
  4  5  1  0  0  0  0
  5  6  2  0  0  0  0
  5 28  1  0  0  0  0
  6  1  1  0  0  0  0
  6 29  1  0  0  0  0
  7 11  1  0  0  0  0
  7 30  1  6  0  0  0
  7  8  1  0  0  0  0
  7  4  1  0  0  0  0
  8  9  1  0  0  0  0
  8 10  2  0  0  0  0
  9 31  1  0  0  0  0
 11 32  1  0  0  0  0
 11 33  1  0  0  0  0
 12 13  1  0  0  0  0
 12 15  1  0  0  0  0
 12 34  1  1  0  0  0
 12  9  1  0  0  0  0
 13 14  1  0  0  0  0
 13 20  2  0  0  0  0
 14 15  1  0  0  0  0
 15 16  1  0  0  0  0
 15 35  1  1  0  0  0
 16 17  1  0  0  0  0
 17 18  1  0  0  0  0
 17 36  1  0  0  0  0
 17 37  1  0  0  0  0
 18 19  2  0  0  0  0
 18 24  1  0  0  0  0
 19 14  1  0  0  0  0
 19 21  1  0  0  0  0
 21 22  2  0  0  0  0
 21 23  1  0  0  0  0
 23 38  1  0  0  0  0
 24 39  1  0  0  0  0
 24 40  1  0  0  0  0
 24 41  1  0  0  0  0
M  END
>  <Mol_ID>
8155

>  <Formula>
C16H17N3O4S

>  <MolWeight>
347.38888

>  <Cat>
S1502

>  <Name>
Cephalexin

>  <Synonyms>
Cefalexin

>  <Target>
Antibiotics,Bacterial

>  <Form>
free base

>  <CAS>
15686-71-2

>  <URL>
http://selleckchem.com/products/Cephalexin-(Cefalexin).html

$$$$
