Cetylpyridinium chloride.cdx
 OpenBabel08302522043D

 60 60  0  0  0  0  0  0  0  0999 V2000
   -7.6345    1.9595    0.4929 N   0  3  0  0  0  0  0  0  0  0  0  0
   -7.9740    2.5113    1.6780 C   0  0  0  0  0  0  0  0  0  0  0  0
   -7.8270    2.6327   -0.6672 C   0  0  0  0  0  0  0  0  0  0  0  0
   -7.1389    0.5658    0.4506 C   0  0  0  0  0  0  0  0  0  0  0  0
   -8.5808    3.7614    1.7266 C   0  0  0  0  0  0  0  0  0  0  0  0
   -8.4385    3.8785   -0.6662 C   0  0  0  0  0  0  0  0  0  0  0  0
   -5.6264    0.5366    0.6195 C   0  0  0  0  0  0  0  0  0  0  0  0
   -8.8315    4.4413    0.5411 C   0  0  0  0  0  0  0  0  0  0  0  0
   -5.0679   -0.8865    0.6035 C   0  0  0  0  0  0  0  0  0  0  0  0
   -5.3511   -1.6169   -0.7093 C   0  0  0  0  0  0  0  0  0  0  0  0
   -4.7628   -3.0199   -0.6941 C   0  0  0  0  0  0  0  0  0  0  0  0
   -5.0748   -3.7721   -1.9901 C   0  0  0  0  0  0  0  0  0  0  0  0
   -4.5021   -5.1896   -1.9951 C   0  0  0  0  0  0  0  0  0  0  0  0
   -5.0856   -6.0541   -0.8769 C   0  0  0  0  0  0  0  0  0  0  0  0
   -4.4993   -7.4592   -0.8910 C   0  0  0  0  0  0  0  0  0  0  0  0
   -5.0749   -8.2884    0.2560 C   0  0  0  0  0  0  0  0  0  0  0  0
   -4.4870   -9.6960    0.2567 C   0  0  0  0  0  0  0  0  0  0  0  0
   -5.0649  -10.5378    1.3932 C   0  0  0  0  0  0  0  0  0  0  0  0
   -4.4717  -11.9463    1.3901 C   0  0  0  0  0  0  0  0  0  0  0  0
   -5.0486  -12.7905    2.5266 C   0  0  0  0  0  0  0  0  0  0  0  0
   -4.4694  -14.2045    2.5237 C   0  0  0  0  0  0  0  0  0  0  0  0
   -5.0475  -15.0403    3.6547 C   0  0  0  0  0  0  0  0  0  0  0  0
   -7.7750    1.9373    2.5781 H   0  0  0  0  0  0  0  0  0  0  0  0
   -7.5057    2.1551   -1.5889 H   0  0  0  0  0  0  0  0  0  0  0  0
   -7.6482    0.0046    1.2421 H   0  0  0  0  0  0  0  0  0  0  0  0
   -7.4592    0.1470   -0.5094 H   0  0  0  0  0  0  0  0  0  0  0  0
   -8.8710    4.1954    2.6804 H   0  0  0  0  0  0  0  0  0  0  0  0
   -8.6225    4.4020   -1.6015 H   0  0  0  0  0  0  0  0  0  0  0  0
   -5.1483    1.1267   -0.1716 H   0  0  0  0  0  0  0  0  0  0  0  0
   -5.3518    1.0111    1.5694 H   0  0  0  0  0  0  0  0  0  0  0  0
   -9.3347    5.4081    0.5588 H   0  0  0  0  0  0  0  0  0  0  0  0
   -3.9842   -0.8421    0.7685 H   0  0  0  0  0  0  0  0  0  0  0  0
   -5.4896   -1.4555    1.4432 H   0  0  0  0  0  0  0  0  0  0  0  0
   -6.4298   -1.7044   -0.8714 H   0  0  0  0  0  0  0  0  0  0  0  0
   -4.9371   -1.0446   -1.5517 H   0  0  0  0  0  0  0  0  0  0  0  0
   -3.6761   -2.9747   -0.5445 H   0  0  0  0  0  0  0  0  0  0  0  0
   -5.1872   -3.5498    0.1655 H   0  0  0  0  0  0  0  0  0  0  0  0
   -6.1620   -3.8154   -2.1431 H   0  0  0  0  0  0  0  0  0  0  0  0
   -4.6577   -3.2190   -2.8392 H   0  0  0  0  0  0  0  0  0  0  0  0
   -4.7228   -5.6523   -2.9655 H   0  0  0  0  0  0  0  0  0  0  0  0
   -3.4118   -5.1429   -1.9034 H   0  0  0  0  0  0  0  0  0  0  0  0
   -4.8693   -5.6098    0.1000 H   0  0  0  0  0  0  0  0  0  0  0  0
   -6.1770   -6.0997   -0.9778 H   0  0  0  0  0  0  0  0  0  0  0  0
   -4.7154   -7.9430   -1.8505 H   0  0  0  0  0  0  0  0  0  0  0  0
   -3.4086   -7.4009   -0.7911 H   0  0  0  0  0  0  0  0  0  0  0  0
   -4.8575   -7.7969    1.2129 H   0  0  0  0  0  0  0  0  0  0  0  0
   -6.1666   -8.3398    0.1621 H   0  0  0  0  0  0  0  0  0  0  0  0
   -4.6971  -10.1799   -0.7048 H   0  0  0  0  0  0  0  0  0  0  0  0
   -3.3966   -9.6367    0.3591 H   0  0  0  0  0  0  0  0  0  0  0  0
   -4.8578  -10.0509    2.3539 H   0  0  0  0  0  0  0  0  0  0  0  0
   -6.1553  -10.5957    1.2886 H   0  0  0  0  0  0  0  0  0  0  0  0
   -4.6807  -12.4300    0.4281 H   0  0  0  0  0  0  0  0  0  0  0  0
   -3.3812  -11.8862    1.4918 H   0  0  0  0  0  0  0  0  0  0  0  0
   -4.8337  -12.3071    3.4873 H   0  0  0  0  0  0  0  0  0  0  0  0
   -6.1395  -12.8412    2.4270 H   0  0  0  0  0  0  0  0  0  0  0  0
   -4.6864  -14.6939    1.5673 H   0  0  0  0  0  0  0  0  0  0  0  0
   -3.3790  -14.1626    2.6271 H   0  0  0  0  0  0  0  0  0  0  0  0
   -6.1372  -15.1082    3.5751 H   0  0  0  0  0  0  0  0  0  0  0  0
   -4.6407  -16.0559    3.6230 H   0  0  0  0  0  0  0  0  0  0  0  0
   -4.8008  -14.6056    4.6285 H   0  0  0  0  0  0  0  0  0  0  0  0
  1  2  2  0  0  0  0
  1  3  1  0  0  0  0
  1  4  1  0  0  0  0
  2  5  1  0  0  0  0
  2 23  1  0  0  0  0
  3  6  2  0  0  0  0
  3 24  1  0  0  0  0
  4  7  1  0  0  0  0
  4 25  1  0  0  0  0
  4 26  1  0  0  0  0
  5  8  2  0  0  0  0
  5 27  1  0  0  0  0
  6  8  1  0  0  0  0
  6 28  1  0  0  0  0
  7  9  1  0  0  0  0
  7 29  1  0  0  0  0
  7 30  1  0  0  0  0
  8 31  1  0  0  0  0
  9 10  1  0  0  0  0
  9 32  1  0  0  0  0
  9 33  1  0  0  0  0
 10 11  1  0  0  0  0
 10 34  1  0  0  0  0
 10 35  1  0  0  0  0
 11 12  1  0  0  0  0
 11 36  1  0  0  0  0
 11 37  1  0  0  0  0
 12 13  1  0  0  0  0
 12 38  1  0  0  0  0
 12 39  1  0  0  0  0
 13 14  1  0  0  0  0
 13 40  1  0  0  0  0
 13 41  1  0  0  0  0
 14 15  1  0  0  0  0
 14 42  1  0  0  0  0
 14 43  1  0  0  0  0
 15 16  1  0  0  0  0
 15 44  1  0  0  0  0
 15 45  1  0  0  0  0
 16 17  1  0  0  0  0
 16 46  1  0  0  0  0
 16 47  1  0  0  0  0
 17 18  1  0  0  0  0
 17 48  1  0  0  0  0
 17 49  1  0  0  0  0
 18 19  1  0  0  0  0
 18 50  1  0  0  0  0
 18 51  1  0  0  0  0
 19 20  1  0  0  0  0
 19 52  1  0  0  0  0
 19 53  1  0  0  0  0
 20 21  1  0  0  0  0
 20 54  1  0  0  0  0
 20 55  1  0  0  0  0
 21 22  1  0  0  0  0
 21 56  1  0  0  0  0
 21 57  1  0  0  0  0
 22 58  1  0  0  0  0
 22 59  1  0  0  0  0
 22 60  1  0  0  0  0
M  CHG  1   1   1
M  END
>  <Mol_ID>
1270

>  <Formula>
C21H38ClN

>  <MolWeight>
339.98612

>  <Cat>
S4172

>  <Name>
Cetylpyridinium Chloride

>  <Synonyms>
CPC

>  <Target>
Anti-infection

>  <Form>
Chloride

>  <CAS>
123-03-5

>  <URL>
http://selleckchem.com/products/cetylpyridinium-chloride.html

$$$$
