CHIBROXIN (norfloxacin).cdx
 OpenBabel08302521393D

 41 43  0  0  0  0  0  0  0  0999 V2000
   -2.4717   -0.6900    0.1649 C   0  0  0  0  0  0  0  0  0  0  0  0
   -2.5118    0.7143    0.2108 C   0  0  0  0  0  0  0  0  0  0  0  0
   -1.2695    1.3805    0.1257 C   0  0  0  0  0  0  0  0  0  0  0  0
   -0.0327    0.7128    0.0358 C   0  0  0  0  0  0  0  0  0  0  0  0
   -0.0734   -0.6946    0.0195 C   0  0  0  0  0  0  0  0  0  0  0  0
   -1.2789   -1.3939    0.0705 C   0  0  0  0  0  0  0  0  0  0  0  0
    1.2153    1.3759   -0.0125 N   0  0  0  0  0  0  0  0  0  0  0  0
    2.3794    0.6162   -0.0220 C   0  0  0  0  0  0  0  0  0  0  0  0
    2.4627   -0.7215   -0.0125 C   0  0  0  0  0  0  0  0  0  0  0  0
    1.1894   -1.4650   -0.0291 C   0  0  0  0  0  0  0  0  0  0  0  0
    1.2832    2.8496   -0.0323 C   0  0  0  0  0  0  0  0  0  0  0  0
    1.1965   -2.6953   -0.0629 O   0  0  0  0  0  0  0  0  0  0  0  0
    3.7883   -1.3697    0.0290 C   0  0  0  0  0  0  0  0  0  0  0  0
    3.7534   -2.7192    0.0488 O   0  0  0  0  0  0  0  0  0  0  0  0
    4.8401   -0.7447    0.0595 O   0  0  0  0  0  0  0  0  0  0  0  0
    1.1541    3.3922   -1.4486 C   0  0  0  0  0  0  0  0  0  0  0  0
   -3.6067   -1.4079    0.1681 F   0  0  0  0  0  0  0  0  0  0  0  0
   -3.6904    1.4304    0.3222 N   0  0  0  0  0  0  0  0  0  0  0  0
   -4.8325    0.9493    1.1164 C   0  0  0  0  0  0  0  0  0  0  0  0
   -6.1345    1.0570    0.2932 C   0  0  0  0  0  0  0  0  0  0  0  0
   -6.3789    2.4199   -0.2337 N   0  0  0  0  0  0  0  0  0  0  0  0
   -5.2065    2.8332   -1.0331 C   0  0  0  0  0  0  0  0  0  0  0  0
   -3.8656    2.7664   -0.2637 C   0  0  0  0  0  0  0  0  0  0  0  0
   -1.2858    2.4629    0.1752 H   0  0  0  0  0  0  0  0  0  0  0  0
   -1.3073   -2.4792    0.0383 H   0  0  0  0  0  0  0  0  0  0  0  0
    3.2882    1.2179   -0.0209 H   0  0  0  0  0  0  0  0  0  0  0  0
    0.5377    3.3034    0.6291 H   0  0  0  0  0  0  0  0  0  0  0  0
    2.2469    3.1809    0.3759 H   0  0  0  0  0  0  0  0  0  0  0  0
    2.8407   -3.0982    0.0115 H   0  0  0  0  0  0  0  0  0  0  0  0
    0.2090    3.0982   -1.9150 H   0  0  0  0  0  0  0  0  0  0  0  0
    1.1992    4.4873   -1.4377 H   0  0  0  0  0  0  0  0  0  0  0  0
    1.9688    3.0292   -2.0841 H   0  0  0  0  0  0  0  0  0  0  0  0
   -4.7155   -0.0719    1.4896 H   0  0  0  0  0  0  0  0  0  0  0  0
   -4.9193    1.5818    2.0109 H   0  0  0  0  0  0  0  0  0  0  0  0
   -6.1031    0.3486   -0.5439 H   0  0  0  0  0  0  0  0  0  0  0  0
   -6.9851    0.7707    0.9211 H   0  0  0  0  0  0  0  0  0  0  0  0
   -6.4578    3.0533    0.5617 H   0  0  0  0  0  0  0  0  0  0  0  0
   -5.1439    2.1965   -1.9248 H   0  0  0  0  0  0  0  0  0  0  0  0
   -5.3653    3.8571   -1.3883 H   0  0  0  0  0  0  0  0  0  0  0  0
   -3.8532    3.5160    0.5376 H   0  0  0  0  0  0  0  0  0  0  0  0
   -3.0686    3.0202   -0.9711 H   0  0  0  0  0  0  0  0  0  0  0  0
  1  2  2  0  0  0  0
  1 17  1  0  0  0  0
  2  3  1  0  0  0  0
  2 18  1  0  0  0  0
  3  4  2  0  0  0  0
  3 24  1  0  0  0  0
  4  5  1  0  0  0  0
  4  7  1  0  0  0  0
  5  6  2  0  0  0  0
  6  1  1  0  0  0  0
  6 25  1  0  0  0  0
  7  8  1  0  0  0  0
  7 11  1  0  0  0  0
  8  9  2  0  0  0  0
  8 26  1  0  0  0  0
  9 10  1  0  0  0  0
  9 13  1  0  0  0  0
 10  5  1  0  0  0  0
 10 12  2  0  0  0  0
 11 16  1  0  0  0  0
 11 27  1  0  0  0  0
 11 28  1  0  0  0  0
 13 14  1  0  0  0  0
 13 15  2  0  0  0  0
 14 29  1  0  0  0  0
 16 30  1  0  0  0  0
 16 31  1  0  0  0  0
 16 32  1  0  0  0  0
 18 19  1  0  0  0  0
 19 20  1  0  0  0  0
 19 33  1  0  0  0  0
 19 34  1  0  0  0  0
 20 21  1  0  0  0  0
 20 35  1  0  0  0  0
 20 36  1  0  0  0  0
 21 22  1  0  0  0  0
 21 37  1  0  0  0  0
 22 23  1  0  0  0  0
 22 38  1  0  0  0  0
 22 39  1  0  0  0  0
 23 18  1  0  0  0  0
 23 40  1  0  0  0  0
 23 41  1  0  0  0  0
M  END
>  <Mol_ID>
8224

>  <Formula>
C16H18FN3O3

>  <MolWeight>
319.3308232

>  <Cat>
S1509

>  <Name>
Norfloxacin

>  <Synonyms>
MK-0366

>  <Target>
Topoisomerase

>  <Form>
free base

>  <CAS>
70458-96-7

>  <URL>
http://selleckchem.com/products/Norfloxacin(Norxacin).html

$$$$
