CHIR124.cdx
 OpenBabel08302521423D

 52 57  0  0  0  0  0  0  0  0999 V2000
   -2.0648    0.0824   -0.3471 C   0  0  0  0  0  0  0  0  0  0  0  0
   -1.7608   -1.3861   -0.3191 C   0  0  0  0  0  0  0  0  0  0  0  0
   -0.4758   -1.7817   -0.0895 C   0  0  0  0  0  0  0  0  0  0  0  0
    0.6294   -0.7927   -0.0817 C   0  0  0  0  0  0  0  0  0  0  0  0
    0.3250    0.5670   -0.0721 C   0  0  0  0  0  0  0  0  0  0  0  0
   -1.0153    0.9641   -0.1788 N   0  0  0  0  0  0  0  0  0  0  0  0
   -4.8256   -3.3451   -0.4987 C   0  0  0  0  0  0  0  0  0  0  0  0
   -3.8270   -4.2986   -0.6237 C   0  0  0  0  0  0  0  0  0  0  0  0
   -2.5981   -3.7080   -0.5991 N   0  0  0  0  0  0  0  0  0  0  0  0
   -2.7806   -2.4044   -0.4555 C   0  0  0  0  0  0  0  0  0  0  0  0
   -4.1398   -2.1426   -0.4099 N   0  0  0  0  0  0  0  0  0  0  0  0
   -4.1552   -5.6605   -0.7393 C   0  0  0  0  0  0  0  0  0  0  0  0
   -5.5032   -6.0320   -0.7418 C   0  0  0  0  0  0  0  0  0  0  0  0
   -6.4987   -5.0635   -0.6172 C   0  0  0  0  0  0  0  0  0  0  0  0
   -6.1824   -3.6965   -0.4922 C   0  0  0  0  0  0  0  0  0  0  0  0
   -3.2179    0.4961   -0.4712 O   0  0  0  0  0  0  0  0  0  0  0  0
    1.9835   -1.1789   -0.1058 C   0  0  0  0  0  0  0  0  0  0  0  0
    3.0102   -0.2410   -0.0312 C   0  0  0  0  0  0  0  0  0  0  0  0
    2.6909    1.1099    0.0443 C   0  0  0  0  0  0  0  0  0  0  0  0
    1.3500    1.5234    0.0087 C   0  0  0  0  0  0  0  0  0  0  0  0
   -0.1091   -3.1149    0.1224 N   0  0  0  0  0  0  0  0  0  0  0  0
    0.4072   -3.6542    1.3925 C   0  0  1  0  0  0  0  0  0  0  0  0
    0.1862   -2.7923    2.6689 C   0  0  3  0  0  0  0  0  0  0  0  0
   -1.2943   -2.7592    3.0684 C   0  0  0  0  0  0  0  0  0  0  0  0
   -1.8084   -4.1976    3.2135 C   0  0  0  0  0  0  0  0  0  0  0  0
   -0.7410   -5.2087    3.0155 N   0  0  3  0  0  0  0  0  0  0  0  0
   -0.2058   -5.0642    1.6418 C   0  0  0  0  0  0  0  0  0  0  0  0
    0.3753   -4.9580    3.9463 C   0  0  0  0  0  0  0  0  0  0  0  0
    0.9015   -3.5172    3.8340 C   0  0  0  0  0  0  0  0  0  0  0  0
   -1.2470    1.9477   -0.1870 H   0  0  0  0  0  0  0  0  0  0  0  0
   -4.5527   -1.2215   -0.3197 H   0  0  0  0  0  0  0  0  0  0  0  0
   -3.3700   -6.4044   -0.8278 H   0  0  0  0  0  0  0  0  0  0  0  0
   -5.7703   -7.0827   -0.8365 H   0  0  0  0  0  0  0  0  0  0  0  0
   -7.5412   -5.3768   -0.6213 H   0  0  0  0  0  0  0  0  0  0  0  0
   -6.9713   -2.9590   -0.3838 H   0  0  0  0  0  0  0  0  0  0  0  0
    2.2493   -2.2286   -0.1953 H   0  0  0  0  0  0  0  0  0  0  0  0
    4.0474   -0.5720   -0.0346 H   0  0  0  0  0  0  0  0  0  0  0  0
    3.4902    1.8447    0.1088 H   0  0  0  0  0  0  0  0  0  0  0  0
    1.1301    2.5812    0.0404 H   0  0  0  0  0  0  0  0  0  0  0  0
   -0.8953   -3.7006   -0.2038 H   0  0  0  0  0  0  0  0  0  0  0  0
    1.4892   -3.7777    1.2646 H   0  0  0  0  0  0  0  0  0  0  0  0
    0.5832   -1.7769    2.5732 H   0  0  0  0  0  0  0  0  0  0  0  0
   -1.8964   -2.2037    2.3465 H   0  0  0  0  0  0  0  0  0  0  0  0
   -1.4076   -2.2276    4.0233 H   0  0  0  0  0  0  0  0  0  0  0  0
   -2.6246   -4.3668    2.5000 H   0  0  0  0  0  0  0  0  0  0  0  0
   -2.2548   -4.3271    4.2069 H   0  0  0  0  0  0  0  0  0  0  0  0
   -0.9956   -5.3179    0.9257 H   0  0  0  0  0  0  0  0  0  0  0  0
    0.5743   -5.8170    1.4710 H   0  0  0  0  0  0  0  0  0  0  0  0
    0.0645   -5.1806    4.9728 H   0  0  0  0  0  0  0  0  0  0  0  0
    1.1896   -5.6613    3.7267 H   0  0  0  0  0  0  0  0  0  0  0  0
    1.9850   -3.5226    3.6708 H   0  0  0  0  0  0  0  0  0  0  0  0
    0.7197   -2.9883    4.7781 H   0  0  0  0  0  0  0  0  0  0  0  0
  1  2  1  0  0  0  0
  1 16  2  0  0  0  0
  2  3  2  0  0  0  0
  3  4  1  0  0  0  0
  3 21  1  0  0  0  0
  4  5  2  0  0  0  0
  4 17  1  0  0  0  0
  5  6  1  0  0  0  0
  6  1  1  0  0  0  0
  6 30  1  0  0  0  0
  7  8  2  0  0  0  0
  7 11  1  0  0  0  0
  8  9  1  0  0  0  0
  8 12  1  0  0  0  0
  9 10  2  0  0  0  0
 10 11  1  0  0  0  0
 10  2  1  0  0  0  0
 11 31  1  0  0  0  0
 12 13  2  0  0  0  0
 12 32  1  0  0  0  0
 13 14  1  0  0  0  0
 13 33  1  0  0  0  0
 14 15  2  0  0  0  0
 14 34  1  0  0  0  0
 15  7  1  0  0  0  0
 15 35  1  0  0  0  0
 17 18  2  0  0  0  0
 17 36  1  0  0  0  0
 18 19  1  0  0  0  0
 18 37  1  0  0  0  0
 19 20  2  0  0  0  0
 19 38  1  0  0  0  0
 20  5  1  0  0  0  0
 20 39  1  0  0  0  0
 21 40  1  0  0  0  0
 22 21  1  0  0  0  0
 22 23  1  0  0  0  0
 22 41  1  6  0  0  0
 23 24  1  0  0  0  0
 23 29  1  0  0  0  0
 23 42  1  0  0  0  0
 24 25  1  0  0  0  0
 24 43  1  0  0  0  0
 24 44  1  0  0  0  0
 25 26  1  0  0  0  0
 25 45  1  0  0  0  0
 25 46  1  0  0  0  0
 26 27  1  0  0  0  0
 26 28  1  0  0  0  0
 27 22  1  0  0  0  0
 27 47  1  0  0  0  0
 27 48  1  0  0  0  0
 28 49  1  0  0  0  0
 28 50  1  0  0  0  0
 29 28  1  0  0  0  0
 29 51  1  0  0  0  0
 29 52  1  0  0  0  0
M  END
>  <Mol_ID>
836

>  <Formula>
C23H22ClN5O

>  <MolWeight>
419.90668

>  <Cat>
S2683

>  <Name>
CHIR-124

>  <Synonyms>
N/A

>  <Target>
Chk

>  <Form>
free base

>  <CAS>
405168-58-3

>  <URL>
http://selleckchem.com/products/chir-124.html

$$$$
