CHIR-98014.cdx
 OpenBabel08302521293D

 50 53  0  0  0  0  0  0  0  0999 V2000
   -0.9386   -1.1477   -0.4518 C   0  0  0  0  0  0  0  0  0  0  0  0
    0.2660   -1.2490   -1.1384 C   0  0  0  0  0  0  0  0  0  0  0  0
    1.0598   -0.1196   -1.3097 C   0  0  0  0  0  0  0  0  0  0  0  0
    0.6567    1.1070   -0.7735 C   0  0  0  0  0  0  0  0  0  0  0  0
   -0.5568    1.2407   -0.0720 C   0  0  0  0  0  0  0  0  0  0  0  0
   -1.3571    0.0883    0.0485 C   0  0  0  0  0  0  0  0  0  0  0  0
   -0.9911    2.5670    0.4311 C   0  0  0  0  0  0  0  0  0  0  0  0
   -0.6985    3.5676   -0.4428 N   0  0  0  0  0  0  0  0  0  0  0  0
   -1.1835    4.7912   -0.2248 C   0  0  0  0  0  0  0  0  0  0  0  0
   -2.0001    5.0808    0.7924 N   0  0  0  0  0  0  0  0  0  0  0  0
   -2.2523    4.0949    1.6779 C   0  0  0  0  0  0  0  0  0  0  0  0
   -1.7358    2.8180    1.5763 C   0  0  0  0  0  0  0  0  0  0  0  0
   -0.8399    5.8244   -1.0467 N   0  0  0  0  0  0  0  0  0  0  0  0
    0.0114    5.6561   -2.2066 C   0  0  0  0  0  0  0  0  0  0  0  0
   -0.7771    5.2707   -3.4721 C   0  0  0  0  0  0  0  0  0  0  0  0
    0.0693    5.3258   -4.6596 N   0  0  0  0  0  0  0  0  0  0  0  0
   -0.3169    4.8369   -5.8864 C   0  0  0  0  0  0  0  0  0  0  0  0
   -1.6399    4.6128   -6.2384 C   0  0  0  0  0  0  0  0  0  0  0  0
   -1.9381    4.1471   -7.5169 C   0  0  0  0  0  0  0  0  0  0  0  0
   -0.8984    3.9265   -8.4234 C   0  0  0  0  0  0  0  0  0  0  0  0
    0.4095    4.1874   -8.0215 C   0  0  0  0  0  0  0  0  0  0  0  0
    0.6866    4.6286   -6.7686 N   0  0  0  0  0  0  0  0  0  0  0  0
    1.5385    3.9232   -8.7871 N   0  0  0  0  0  0  0  0  0  0  0  0
   -1.2224    3.4817   -9.7776 N   0  3  0  0  0  0  0  0  0  0  0  0
   -2.3990    3.1572  -10.0037 O   0  0  0  0  0  0  0  0  0  0  0  0
   -0.3332    3.4921  -10.6415 O   0  5  0  0  0  0  0  0  0  0  0  0
   -1.9568    1.8878    2.6156 N   0  0  0  0  0  0  0  0  0  0  0  0
   -3.0574    1.8237    3.4462 C   0  0  0  0  0  0  0  0  0  0  0  0
   -2.8712    0.7111    4.2327 C   0  0  0  0  0  0  0  0  0  0  0  0
   -1.6583    0.1388    3.9807 N   0  0  0  0  0  0  0  0  0  0  0  0
   -1.1195    0.8777    3.0366 C   0  0  0  0  0  0  0  0  0  0  0  0
   -1.5632   -2.0267   -0.3122 H   0  0  0  0  0  0  0  0  0  0  0  0
    0.5789   -2.2047   -1.5502 H   0  0  0  0  0  0  0  0  0  0  0  0
    1.9901   -0.1877   -1.8679 H   0  0  0  0  0  0  0  0  0  0  0  0
    1.2940    1.9771   -0.9274 H   0  0  0  0  0  0  0  0  0  0  0  0
   -2.3285    0.1281    0.5371 H   0  0  0  0  0  0  0  0  0  0  0  0
   -2.8567    4.4170    2.5222 H   0  0  0  0  0  0  0  0  0  0  0  0
   -1.3738    6.6701   -0.9076 H   0  0  0  0  0  0  0  0  0  0  0  0
    0.5259    6.6091   -2.3839 H   0  0  0  0  0  0  0  0  0  0  0  0
    0.8072    4.9229   -2.0208 H   0  0  0  0  0  0  0  0  0  0  0  0
   -1.2106    4.2714   -3.3453 H   0  0  0  0  0  0  0  0  0  0  0  0
   -1.6051    5.9798   -3.5986 H   0  0  0  0  0  0  0  0  0  0  0  0
    1.0746    5.2333   -4.5454 H   0  0  0  0  0  0  0  0  0  0  0  0
   -2.4460    4.7871   -5.5352 H   0  0  0  0  0  0  0  0  0  0  0  0
   -2.9769    3.9685   -7.7849 H   0  0  0  0  0  0  0  0  0  0  0  0
    2.3584    4.3200   -8.3390 H   0  0  0  0  0  0  0  0  0  0  0  0
    1.4421    4.1664   -9.7713 H   0  0  0  0  0  0  0  0  0  0  0  0
   -3.8957    2.5005    3.3675 H   0  0  0  0  0  0  0  0  0  0  0  0
   -3.5485    0.2923    4.9668 H   0  0  0  0  0  0  0  0  0  0  0  0
   -0.1265    0.7281    2.6307 H   0  0  0  0  0  0  0  0  0  0  0  0
  1  2  2  0  0  0  0
  1 32  1  0  0  0  0
  2  3  1  0  0  0  0
  2 33  1  0  0  0  0
  3  4  2  0  0  0  0
  3 34  1  0  0  0  0
  4  5  1  0  0  0  0
  4 35  1  0  0  0  0
  5  6  2  0  0  0  0
  5  7  1  0  0  0  0
  6  1  1  0  0  0  0
  6 36  1  0  0  0  0
  7  8  2  0  0  0  0
  8  9  1  0  0  0  0
  9 10  2  0  0  0  0
  9 13  1  0  0  0  0
 10 11  1  0  0  0  0
 11 12  2  0  0  0  0
 11 37  1  0  0  0  0
 12  7  1  0  0  0  0
 12 27  1  0  0  0  0
 13 14  1  0  0  0  0
 13 38  1  0  0  0  0
 14 15  1  0  0  0  0
 14 39  1  0  0  0  0
 14 40  1  0  0  0  0
 15 16  1  0  0  0  0
 15 41  1  0  0  0  0
 15 42  1  0  0  0  0
 16 17  1  0  0  0  0
 16 43  1  0  0  0  0
 17 18  2  0  0  0  0
 18 19  1  0  0  0  0
 18 44  1  0  0  0  0
 19 20  2  0  0  0  0
 19 45  1  0  0  0  0
 20 21  1  0  0  0  0
 20 24  1  0  0  0  0
 21 22  2  0  0  0  0
 21 23  1  0  0  0  0
 22 17  1  0  0  0  0
 23 46  1  0  0  0  0
 23 47  1  0  0  0  0
 24 25  2  0  0  0  0
 24 26  1  0  0  0  0
 27 28  1  0  0  0  0
 28 29  2  0  0  0  0
 28 48  1  0  0  0  0
 29 30  1  0  0  0  0
 29 49  1  0  0  0  0
 30 31  2  0  0  0  0
 31 27  1  0  0  0  0
 31 50  1  0  0  0  0
M  CHG  2  24   1  26  -1
M  END
>  <Mol_ID>
526

>  <Formula>
C20H17Cl2N9O2

>  <MolWeight>
486.31408

>  <Cat>
S2745

>  <Name>
CHIR-98014

>  <Synonyms>
CT98014

>  <Target>
GSK-3

>  <Form>
free base

>  <CAS>
252935-94-7

>  <URL>
http://selleckchem.com/products/chir-98014.html

$$$$
