Chlorpheniramine Maleate.cdx
 OpenBabel08302522063D

 50 50  0  0  0  0  0  0  0  0999 V2000
    1.7120   -1.1670   -1.9608 C   0  0  0  0  0  0  0  0  0  0  0  0
    1.2355    0.0021   -2.5160 C   0  0  0  0  0  0  0  0  0  0  0  0
   -0.0590    0.3773   -2.2012 C   0  0  0  0  0  0  0  0  0  0  0  0
   -0.8334   -0.4418   -1.3705 C   0  0  0  0  0  0  0  0  0  0  0  0
   -0.3153   -1.6486   -0.8935 C   0  0  0  0  0  0  0  0  0  0  0  0
    0.9732   -1.9988   -1.1676 N   0  0  0  0  0  0  0  0  0  0  0  0
   -1.2221   -2.7801   -0.3340 C   0  0  3  0  0  0  0  0  0  0  0  0
   -2.1931   -2.4887    0.8563 C   0  0  0  0  0  0  0  0  0  0  0  0
   -2.9737   -3.7504    1.3603 C   0  0  0  0  0  0  0  0  0  0  0  0
   -3.6877   -3.5899    2.6545 N   0  0  0  0  0  0  0  0  0  0  0  0
   -4.8414   -2.6876    2.5754 C   0  0  0  0  0  0  0  0  0  0  0  0
   -4.1847   -4.8890    3.1518 C   0  0  0  0  0  0  0  0  0  0  0  0
   -1.8730   -3.4935   -1.5285 C   0  0  0  0  0  0  0  0  0  0  0  0
   -1.5501   -4.8306   -1.7711 C   0  0  0  0  0  0  0  0  0  0  0  0
   -1.8283   -5.4064   -3.0127 C   0  0  0  0  0  0  0  0  0  0  0  0
   -2.4193   -4.6407   -4.0164 C   0  0  0  0  0  0  0  0  0  0  0  0
   -2.8232   -3.3368   -3.7564 C   0  0  0  0  0  0  0  0  0  0  0  0
   -2.5975   -2.7811   -2.4983 C   0  0  0  0  0  0  0  0  0  0  0  0
    0.8868    0.4940    1.6197 C   0  0  0  0  0  0  0  0  0  0  0  0
   -0.2081    0.2724    2.5789 C   0  0  0  0  0  0  0  0  0  0  0  0
   -1.4822    0.6907    2.5563 C   0  0  0  0  0  0  0  0  0  0  0  0
    1.9066   -0.3680    1.8435 O   0  0  0  0  0  0  0  0  0  0  0  0
    0.9386    1.3926    0.8058 O   0  0  0  0  0  0  0  0  0  0  0  0
   -2.2656    1.4367    1.5583 C   0  0  0  0  0  0  0  0  0  0  0  0
   -3.4642    1.7196    2.1106 O   0  0  0  0  0  0  0  0  0  0  0  0
   -2.0153    1.7248    0.4099 O   0  0  0  0  0  0  0  0  0  0  0  0
    2.7190   -1.5097   -2.1755 H   0  0  0  0  0  0  0  0  0  0  0  0
    1.8555    0.6072   -3.1740 H   0  0  0  0  0  0  0  0  0  0  0  0
   -0.4733    1.2982   -2.6071 H   0  0  0  0  0  0  0  0  0  0  0  0
   -1.8595   -0.1493   -1.1786 H   0  0  0  0  0  0  0  0  0  0  0  0
   -0.4933   -3.4841    0.0955 H   0  0  0  0  0  0  0  0  0  0  0  0
   -1.5871   -2.1219    1.6949 H   0  0  0  0  0  0  0  0  0  0  0  0
   -2.8952   -1.6914    0.5950 H   0  0  0  0  0  0  0  0  0  0  0  0
   -3.6732   -4.0942    0.5894 H   0  0  0  0  0  0  0  0  0  0  0  0
   -2.2301   -4.5466    1.5007 H   0  0  0  0  0  0  0  0  0  0  0  0
   -5.6810   -3.1299    2.0242 H   0  0  0  0  0  0  0  0  0  0  0  0
   -5.1967   -2.4548    3.5886 H   0  0  0  0  0  0  0  0  0  0  0  0
   -4.5867   -1.7345    2.1097 H   0  0  0  0  0  0  0  0  0  0  0  0
   -4.9912   -5.2965    2.5276 H   0  0  0  0  0  0  0  0  0  0  0  0
   -3.3893   -5.6387    3.2056 H   0  0  0  0  0  0  0  0  0  0  0  0
   -4.5800   -4.7820    4.1712 H   0  0  0  0  0  0  0  0  0  0  0  0
   -1.0106   -5.4133   -1.0269 H   0  0  0  0  0  0  0  0  0  0  0  0
   -1.5260   -6.4265   -3.2101 H   0  0  0  0  0  0  0  0  0  0  0  0
   -2.5464   -5.0578   -5.0108 H   0  0  0  0  0  0  0  0  0  0  0  0
   -3.2634   -2.7293   -4.5418 H   0  0  0  0  0  0  0  0  0  0  0  0
   -2.8986   -1.7495   -2.3414 H   0  0  0  0  0  0  0  0  0  0  0  0
    0.0853   -0.2807    3.4634 H   0  0  0  0  0  0  0  0  0  0  0  0
   -2.0815    0.4219    3.4222 H   0  0  0  0  0  0  0  0  0  0  0  0
    1.7196   -1.1153    2.4380 H   0  0  0  0  0  0  0  0  0  0  0  0
   -3.9664    2.1777    1.4056 H   0  0  0  0  0  0  0  0  0  0  0  0
  1  2  2  0  0  0  0
  1 27  1  0  0  0  0
  2  3  1  0  0  0  0
  2 28  1  0  0  0  0
  3  4  2  0  0  0  0
  3 29  1  0  0  0  0
  4  5  1  0  0  0  0
  4 30  1  0  0  0  0
  5  6  2  0  0  0  0
  5  7  1  0  0  0  0
  6  1  1  0  0  0  0
  7  8  1  0  0  0  0
  7 13  1  0  0  0  0
  7 31  1  0  0  0  0
  8  9  1  0  0  0  0
  8 32  1  0  0  0  0
  8 33  1  0  0  0  0
  9 10  1  0  0  0  0
  9 34  1  0  0  0  0
  9 35  1  0  0  0  0
 10 11  1  0  0  0  0
 10 12  1  0  0  0  0
 11 36  1  0  0  0  0
 11 37  1  0  0  0  0
 11 38  1  0  0  0  0
 12 39  1  0  0  0  0
 12 40  1  0  0  0  0
 12 41  1  0  0  0  0
 13 14  2  0  0  0  0
 14 15  1  0  0  0  0
 14 42  1  0  0  0  0
 15 16  2  0  0  0  0
 15 43  1  0  0  0  0
 16 17  1  0  0  0  0
 16 44  1  0  0  0  0
 17 18  2  0  0  0  0
 17 45  1  0  0  0  0
 18 13  1  0  0  0  0
 18 46  1  0  0  0  0
 19 20  1  0  0  0  0
 19 22  1  0  0  0  0
 19 23  2  0  0  0  0
 20 21  2  0  0  0  0
 20 47  1  0  0  0  0
 21 24  1  0  0  0  0
 21 48  1  0  0  0  0
 22 49  1  0  0  0  0
 24 25  1  0  0  0  0
 24 26  2  0  0  0  0
 25 50  1  0  0  0  0
M  END
>  <Mol_ID>
1382

>  <Formula>
C20H23ClN2O4

>  <MolWeight>
390.86062

>  <Cat>
S1816

>  <Name>
Chlorpheniramine Maleate

>  <Synonyms>
NCI-C55265

>  <Target>
Histamine Receptor

>  <Form>
Maleate

>  <CAS>
113-92-8

>  <URL>
http://selleckchem.com/products/Chlorpheniramine-maleate.html

$$$$
