CID 2011756
 OpenBabel08302520353D

 49 52  0  0  0  0  0  0  0  0999 V2000
   -7.3729   -3.8101    2.8418 C   0  0  0  0  0  0  0  0  0  0  0  0
   -6.4836   -3.1251    3.6750 C   0  0  0  0  0  0  0  0  0  0  0  0
   -5.9405   -1.9130    3.2523 C   0  0  0  0  0  0  0  0  0  0  0  0
   -6.2650   -1.3606    2.0106 C   0  0  0  0  0  0  0  0  0  0  0  0
   -7.1589   -2.0665    1.1859 C   0  0  0  0  0  0  0  0  0  0  0  0
   -7.7100   -3.2853    1.6008 C   0  0  0  0  0  0  0  0  0  0  0  0
   -5.7063   -0.0790    1.5908 C   0  0  0  0  0  0  0  0  0  0  0  0
   -4.7964    0.8055    2.1418 C   0  0  0  0  0  0  0  0  0  0  0  0
   -4.7168    1.9105    1.2612 C   0  0  0  0  0  0  0  0  0  0  0  0
   -5.5858    1.6522    0.2193 C   0  0  0  0  0  0  0  0  0  0  0  0
   -6.1727    0.4302    0.4097 O   0  0  0  0  0  0  0  0  0  0  0  0
   -5.9740    2.4662   -0.9169 C   0  0  0  0  0  0  0  0  0  0  0  0
   -6.8281    1.8352   -1.8092 N   0  0  0  0  0  0  0  0  0  0  0  0
   -7.7511    2.5494   -2.5961 C   0  0  0  0  0  0  0  0  0  0  0  0
   -5.5770    3.6202   -1.0688 O   0  0  0  0  0  0  0  0  0  0  0  0
   -7.8756    2.2560   -3.9529 C   0  0  0  0  0  0  0  0  0  0  0  0
   -8.8907    2.8566   -4.7143 C   0  0  0  0  0  0  0  0  0  0  0  0
   -9.8101    3.7357   -4.1192 C   0  0  0  0  0  0  0  0  0  0  0  0
   -9.6298    4.0660   -2.7662 C   0  0  0  0  0  0  0  0  0  0  0  0
   -8.6200    3.4675   -2.0060 C   0  0  0  0  0  0  0  0  0  0  0  0
  -11.0117    4.2756   -4.8850 C   0  0  0  0  0  0  0  0  0  0  0  0
  -12.1897    3.3837   -4.8787 N   0  0  0  0  0  0  0  0  0  0  0  0
  -13.3251    3.9524   -5.6436 C   0  0  0  0  0  0  0  0  0  0  0  0
  -14.1005    5.0737   -4.9206 C   0  0  0  0  0  0  0  0  0  0  0  0
  -14.5235    4.6859   -3.6085 O   0  0  0  0  0  0  0  0  0  0  0  0
  -13.4333    4.1901   -2.8242 C   0  0  0  0  0  0  0  0  0  0  0  0
  -12.7067    3.0390   -3.5372 C   0  0  0  0  0  0  0  0  0  0  0  0
   -7.8096   -4.7454    3.1663 H   0  0  0  0  0  0  0  0  0  0  0  0
   -6.2274   -3.5395    4.6442 H   0  0  0  0  0  0  0  0  0  0  0  0
   -5.2525   -1.4006    3.9281 H   0  0  0  0  0  0  0  0  0  0  0  0
   -7.4384   -1.6770    0.2104 H   0  0  0  0  0  0  0  0  0  0  0  0
   -8.4004   -3.8128    0.9524 H   0  0  0  0  0  0  0  0  0  0  0  0
   -4.2659    0.6800    3.0762 H   0  0  0  0  0  0  0  0  0  0  0  0
   -4.1235    2.8074    1.3753 H   0  0  0  0  0  0  0  0  0  0  0  0
   -7.1107    0.8939   -1.5528 H   0  0  0  0  0  0  0  0  0  0  0  0
   -7.1734    1.5782   -4.4333 H   0  0  0  0  0  0  0  0  0  0  0  0
   -8.9667    2.6209   -5.7736 H   0  0  0  0  0  0  0  0  0  0  0  0
  -10.3045    4.7655   -2.2793 H   0  0  0  0  0  0  0  0  0  0  0  0
   -8.5586    3.6841   -0.9434 H   0  0  0  0  0  0  0  0  0  0  0  0
  -11.2519    5.2800   -4.5162 H   0  0  0  0  0  0  0  0  0  0  0  0
  -10.6925    4.4128   -5.9286 H   0  0  0  0  0  0  0  0  0  0  0  0
  -14.0312    3.1298   -5.8233 H   0  0  0  0  0  0  0  0  0  0  0  0
  -13.0036    4.2924   -6.6339 H   0  0  0  0  0  0  0  0  0  0  0  0
  -13.5148    5.9975   -4.8552 H   0  0  0  0  0  0  0  0  0  0  0  0
  -15.0104    5.3041   -5.4860 H   0  0  0  0  0  0  0  0  0  0  0  0
  -13.8592    3.8190   -1.8855 H   0  0  0  0  0  0  0  0  0  0  0  0
  -12.7579    5.0150   -2.5737 H   0  0  0  0  0  0  0  0  0  0  0  0
  -13.4311    2.2249   -3.6764 H   0  0  0  0  0  0  0  0  0  0  0  0
  -11.9292    2.6164   -2.8959 H   0  0  0  0  0  0  0  0  0  0  0  0
  1  2  2  0  0  0  0
  1 28  1  0  0  0  0
  2  3  1  0  0  0  0
  2 29  1  0  0  0  0
  3  4  2  0  0  0  0
  3 30  1  0  0  0  0
  4  5  1  0  0  0  0
  4  7  1  0  0  0  0
  5  6  2  0  0  0  0
  5 31  1  0  0  0  0
  6  1  1  0  0  0  0
  6 32  1  0  0  0  0
  7  8  2  0  0  0  0
  8  9  1  0  0  0  0
  8 33  1  0  0  0  0
  9 10  2  0  0  0  0
  9 34  1  0  0  0  0
 10 11  1  0  0  0  0
 11  7  1  0  0  0  0
 12 10  1  0  0  0  0
 12 15  2  0  0  0  0
 13 12  1  0  0  0  0
 13 35  1  0  0  0  0
 14 13  1  0  0  0  0
 14 16  2  0  0  0  0
 16 17  1  0  0  0  0
 16 36  1  0  0  0  0
 17 18  2  0  0  0  0
 17 37  1  0  0  0  0
 18 19  1  0  0  0  0
 18 21  1  0  0  0  0
 19 20  2  0  0  0  0
 19 38  1  0  0  0  0
 20 14  1  0  0  0  0
 20 39  1  0  0  0  0
 21 22  1  0  0  0  0
 21 40  1  0  0  0  0
 21 41  1  0  0  0  0
 22 23  1  0  0  0  0
 23 24  1  0  0  0  0
 23 42  1  0  0  0  0
 23 43  1  0  0  0  0
 24 25  1  0  0  0  0
 24 44  1  0  0  0  0
 24 45  1  0  0  0  0
 25 26  1  0  0  0  0
 26 27  1  0  0  0  0
 26 46  1  0  0  0  0
 26 47  1  0  0  0  0
 27 22  1  0  0  0  0
 27 48  1  0  0  0  0
 27 49  1  0  0  0  0
M  END
>  <Mol_ID>
3425

>  <Formula>
C22H21ClN2O3

>  <MolWeight>
396.86674

>  <Cat>
S5792

>  <Name>
CID 2011756

>  <Synonyms>
N/A

>  <Target>
PKD

>  <Form>
Free Base

>  <CAS>
638156-11-3

>  <URL>
http://www.selleckchem.com/products/cid-2011756.html

$$$$
