Cidofovir .cdx
 OpenBabel08302520433D

 32 32  0  0  0  0  0  0  0  0999 V2000
   -3.4640    5.7397    0.6187 C   0  0  0  0  0  0  0  0  0  0  0  0
   -3.9556    4.3442    0.5543 C   0  0  0  0  0  0  0  0  0  0  0  0
   -3.0091    3.4381    0.2969 C   0  0  0  0  0  0  0  0  0  0  0  0
   -1.7400    3.8468   -0.0977 N   0  0  0  0  0  0  0  0  0  0  0  0
   -1.6131    5.1582   -0.5708 C   0  0  0  0  0  0  0  0  0  0  0  0
   -2.3461    6.1063    0.0798 N   0  0  0  0  0  0  0  0  0  0  0  0
   -4.1673    6.7269    1.2488 N   0  0  0  0  0  0  0  0  0  0  0  0
   -0.8832    5.4682   -1.5071 O   0  0  0  0  0  0  0  0  0  0  0  0
   -0.7081    2.8371   -0.3778 C   0  0  0  0  0  0  0  0  0  0  0  0
    0.7454    3.3779   -0.5086 C   0  0  1  0  0  0  0  0  0  0  0  0
    1.4241    3.6882    0.8330 C   0  0  0  0  0  0  0  0  0  0  0  0
    1.4785    2.5763    1.7127 O   0  0  0  0  0  0  0  0  0  0  0  0
    1.5339    2.5055   -1.3547 O   0  0  0  0  0  0  0  0  0  0  0  0
    1.2734    2.8669   -2.7361 C   0  0  0  0  0  0  0  0  0  0  0  0
    2.2072    1.9096   -3.9073 P   0  0  0  0  0  0  0  0  0  0  0  0
    1.5544    0.4467   -3.9816 O   0  0  0  0  0  0  0  0  0  0  0  0
    1.7489    2.5008   -5.3329 O   0  0  0  0  0  0  0  0  0  0  0  0
    3.6962    1.8606   -3.8197 O   0  0  0  0  0  0  0  0  0  0  0  0
   -4.9808    4.1141    0.8152 H   0  0  0  0  0  0  0  0  0  0  0  0
   -3.2094    2.3701    0.3295 H   0  0  0  0  0  0  0  0  0  0  0  0
   -5.0554    6.9279    0.8115 H   0  0  0  0  0  0  0  0  0  0  0  0
   -3.6009    7.5770    1.2301 H   0  0  0  0  0  0  0  0  0  0  0  0
   -0.7394    2.0798    0.4194 H   0  0  0  0  0  0  0  0  0  0  0  0
   -1.0184    2.3135   -1.2878 H   0  0  0  0  0  0  0  0  0  0  0  0
    0.7830    4.3444   -1.0004 H   0  0  0  0  0  0  0  0  0  0  0  0
    2.4477    4.0443    0.6653 H   0  0  0  0  0  0  0  0  0  0  0  0
    0.8778    4.4918    1.3412 H   0  0  0  0  0  0  0  0  0  0  0  0
    2.2799    2.0787    1.4710 H   0  0  0  0  0  0  0  0  0  0  0  0
    0.2097    2.7402   -2.9607 H   0  0  0  0  0  0  0  0  0  0  0  0
    1.5435    3.9155   -2.8884 H   0  0  0  0  0  0  0  0  0  0  0  0
    2.0969   -0.1794   -4.4945 H   0  0  0  0  0  0  0  0  0  0  0  0
    2.3684    2.2840   -6.0533 H   0  0  0  0  0  0  0  0  0  0  0  0
  1  2  1  0  0  0  0
  1  7  1  0  0  0  0
  2  3  2  0  0  0  0
  2 19  1  0  0  0  0
  3  4  1  0  0  0  0
  3 20  1  0  0  0  0
  4  5  1  0  0  0  0
  4  9  1  0  0  0  0
  5  6  1  0  0  0  0
  5  8  2  0  0  0  0
  6  1  2  0  0  0  0
  7 21  1  0  0  0  0
  7 22  1  0  0  0  0
  9 23  1  0  0  0  0
  9 24  1  0  0  0  0
 10  9  1  0  0  0  0
 10 11  1  0  0  0  0
 10 13  1  0  0  0  0
 10 25  1  6  0  0  0
 11 12  1  0  0  0  0
 11 26  1  0  0  0  0
 11 27  1  0  0  0  0
 12 28  1  0  0  0  0
 13 14  1  0  0  0  0
 14 15  1  0  0  0  0
 14 29  1  0  0  0  0
 14 30  1  0  0  0  0
 15 16  1  0  0  0  0
 15 17  1  0  0  0  0
 15 18  2  0  0  0  0
 16 31  1  0  0  0  0
 17 32  1  0  0  0  0
M  END
>  <Mol_ID>
4023

>  <Formula>
C8H14N3O6P

>  <MolWeight>
279.187021

>  <Cat>
S1516

>  <Name>
Cidofovir

>  <Synonyms>
HPMPC,Vistide,GS 0504

>  <Target>
CMV,DNA/RNA Synthesis

>  <Form>
Free Base

>  <CAS>
113852-37-2

>  <URL>
http://selleckchem.com/products/Cidofovir.html

$$$$
