Cilostazol.cdx
 OpenBabel08302519513D

 54 57  0  0  0  0  0  0  0  0999 V2000
   -0.5296   -5.2145   -2.5266 C   0  0  0  0  0  0  0  0  0  0  0  0
   -0.8800   -4.8648   -3.9555 C   0  0  0  0  0  0  0  0  0  0  0  0
   -1.9284   -3.9952   -4.0962 N   0  0  0  0  0  0  0  0  0  0  0  0
   -2.4887   -3.2863   -3.0269 C   0  0  0  0  0  0  0  0  0  0  0  0
   -1.8042   -3.2027   -1.8098 C   0  0  0  0  0  0  0  0  0  0  0  0
   -0.5142   -3.9665   -1.6508 C   0  0  0  0  0  0  0  0  0  0  0  0
   -3.7174   -2.6571   -3.1871 C   0  0  0  0  0  0  0  0  0  0  0  0
   -4.2580   -1.9099   -2.1363 C   0  0  0  0  0  0  0  0  0  0  0  0
   -3.5291   -1.6999   -0.9611 C   0  0  0  0  0  0  0  0  0  0  0  0
   -2.3043   -2.3624   -0.7990 C   0  0  0  0  0  0  0  0  0  0  0  0
   -0.3546   -5.4090   -4.9271 O   0  0  0  0  0  0  0  0  0  0  0  0
   -3.9095   -0.8685    0.0678 O   0  0  0  0  0  0  0  0  0  0  0  0
   -5.1628   -0.1987   -0.0980 C   0  0  0  0  0  0  0  0  0  0  0  0
   -5.4257    0.8093    1.0260 C   0  0  0  0  0  0  0  0  0  0  0  0
   -4.4314    1.9749    1.1337 C   0  0  0  0  0  0  0  0  0  0  0  0
   -4.4013    2.8528   -0.1179 C   0  0  0  0  0  0  0  0  0  0  0  0
   -3.5363    4.0582    0.0135 C   0  0  0  0  0  0  0  0  0  0  0  0
   -3.2691    4.9247   -1.0184 N   0  0  0  0  0  0  0  0  0  0  0  0
   -2.5011    5.9336   -0.5734 N   0  0  0  0  0  0  0  0  0  0  0  0
   -2.2901    5.6739    0.7073 N   0  0  0  0  0  0  0  0  0  0  0  0
   -2.9269    4.5168    1.0862 N   0  0  0  0  0  0  0  0  0  0  0  0
   -3.7277    4.8818   -2.3956 C   0  0  0  0  0  0  0  0  0  0  0  0
   -2.5584    4.8843   -3.3930 C   0  0  0  0  0  0  0  0  0  0  0  0
   -3.0452    4.8879   -4.8403 C   0  0  0  0  0  0  0  0  0  0  0  0
   -4.0166    6.0343   -5.1025 C   0  0  0  0  0  0  0  0  0  0  0  0
   -5.1990    5.9909   -4.1404 C   0  0  0  0  0  0  0  0  0  0  0  0
   -4.7395    6.0035   -2.6849 C   0  0  0  0  0  0  0  0  0  0  0  0
   -1.2903   -5.9251   -2.1751 H   0  0  0  0  0  0  0  0  0  0  0  0
    0.4430   -5.7197   -2.4983 H   0  0  0  0  0  0  0  0  0  0  0  0
   -2.2805   -3.8663   -5.0349 H   0  0  0  0  0  0  0  0  0  0  0  0
   -0.3822   -4.2695   -0.6064 H   0  0  0  0  0  0  0  0  0  0  0  0
    0.3247   -3.3182   -1.9297 H   0  0  0  0  0  0  0  0  0  0  0  0
   -4.2833   -2.7689   -4.1071 H   0  0  0  0  0  0  0  0  0  0  0  0
   -5.2512   -1.4985   -2.2774 H   0  0  0  0  0  0  0  0  0  0  0  0
   -1.7408   -2.2225    0.1220 H   0  0  0  0  0  0  0  0  0  0  0  0
   -5.1982    0.3270   -1.0586 H   0  0  0  0  0  0  0  0  0  0  0  0
   -5.9647   -0.9469   -0.0719 H   0  0  0  0  0  0  0  0  0  0  0  0
   -6.4329    1.2217    0.8835 H   0  0  0  0  0  0  0  0  0  0  0  0
   -5.4287    0.2788    1.9851 H   0  0  0  0  0  0  0  0  0  0  0  0
   -4.7305    2.5888    1.9952 H   0  0  0  0  0  0  0  0  0  0  0  0
   -3.4285    1.5950    1.3572 H   0  0  0  0  0  0  0  0  0  0  0  0
   -4.0432    2.2591   -0.9653 H   0  0  0  0  0  0  0  0  0  0  0  0
   -5.4194    3.1871   -0.3510 H   0  0  0  0  0  0  0  0  0  0  0  0
   -4.2553    3.9301   -2.5234 H   0  0  0  0  0  0  0  0  0  0  0  0
   -1.9177    5.7613   -3.2313 H   0  0  0  0  0  0  0  0  0  0  0  0
   -1.9272    4.0033   -3.2249 H   0  0  0  0  0  0  0  0  0  0  0  0
   -2.1872    4.9690   -5.5169 H   0  0  0  0  0  0  0  0  0  0  0  0
   -3.5381    3.9333   -5.0630 H   0  0  0  0  0  0  0  0  0  0  0  0
   -3.4918    6.9915   -4.9942 H   0  0  0  0  0  0  0  0  0  0  0  0
   -4.3789    5.9821   -6.1351 H   0  0  0  0  0  0  0  0  0  0  0  0
   -5.8587    6.8453   -4.3256 H   0  0  0  0  0  0  0  0  0  0  0  0
   -5.7900    5.0851   -4.3293 H   0  0  0  0  0  0  0  0  0  0  0  0
   -5.6108    5.8945   -2.0293 H   0  0  0  0  0  0  0  0  0  0  0  0
   -4.2961    6.9846   -2.4573 H   0  0  0  0  0  0  0  0  0  0  0  0
  1  2  1  0  0  0  0
  1 28  1  0  0  0  0
  1 29  1  0  0  0  0
  2  3  1  0  0  0  0
  2 11  2  0  0  0  0
  3  4  1  0  0  0  0
  3 30  1  0  0  0  0
  4  5  2  0  0  0  0
  4  7  1  0  0  0  0
  5  6  1  0  0  0  0
  6  1  1  0  0  0  0
  6 31  1  0  0  0  0
  6 32  1  0  0  0  0
  7  8  2  0  0  0  0
  7 33  1  0  0  0  0
  8  9  1  0  0  0  0
  8 34  1  0  0  0  0
  9 10  2  0  0  0  0
  9 12  1  0  0  0  0
 10  5  1  0  0  0  0
 10 35  1  0  0  0  0
 12 13  1  0  0  0  0
 13 14  1  0  0  0  0
 13 36  1  0  0  0  0
 13 37  1  0  0  0  0
 14 15  1  0  0  0  0
 14 38  1  0  0  0  0
 14 39  1  0  0  0  0
 15 16  1  0  0  0  0
 15 40  1  0  0  0  0
 15 41  1  0  0  0  0
 16 17  1  0  0  0  0
 16 42  1  0  0  0  0
 16 43  1  0  0  0  0
 17 18  1  0  0  0  0
 18 19  1  0  0  0  0
 18 22  1  0  0  0  0
 19 20  2  0  0  0  0
 20 21  1  0  0  0  0
 21 17  2  0  0  0  0
 22 23  1  0  0  0  0
 22 44  1  0  0  0  0
 23 24  1  0  0  0  0
 23 45  1  0  0  0  0
 23 46  1  0  0  0  0
 24 25  1  0  0  0  0
 24 47  1  0  0  0  0
 24 48  1  0  0  0  0
 25 26  1  0  0  0  0
 25 49  1  0  0  0  0
 25 50  1  0  0  0  0
 26 27  1  0  0  0  0
 26 51  1  0  0  0  0
 26 52  1  0  0  0  0
 27 22  1  0  0  0  0
 27 53  1  0  0  0  0
 27 54  1  0  0  0  0
M  END
>  <Mol_ID>
193

>  <Formula>
C20H27N5O2

>  <MolWeight>
369.46068

>  <Cat>
S1294

>  <Name>
Cilostazol (OPC-13013)

>  <Synonyms>
Pletal,OPC-13013

>  <Target>
PDE

>  <Form>
free base

>  <CAS>
73963-72-1

>  <URL>
http://selleckchem.com/products/Cilostazol.html

$$$$
