Cilostamide
 OpenBabel08302520383D

 51 53  0  0  0  0  0  0  0  0999 V2000
    5.3447   -1.1290   -7.0048 C   0  0  0  0  0  0  0  0  0  0  0  0
    5.3735   -2.5099   -6.7549 C   0  0  0  0  0  0  0  0  0  0  0  0
    5.5166   -0.2351   -5.9356 C   0  0  0  0  0  0  0  0  0  0  0  0
    5.1494   -0.6714   -8.3834 C   0  0  0  0  0  0  0  0  0  0  0  0
    5.7002   -2.9889   -5.4953 C   0  0  0  0  0  0  0  0  0  0  0  0
    5.0626   -3.4063   -7.7924 N   0  0  0  0  0  0  0  0  0  0  0  0
    5.7562   -0.7107   -4.6392 C   0  0  0  0  0  0  0  0  0  0  0  0
    4.9047   -1.5578   -9.3604 C   0  0  0  0  0  0  0  0  0  0  0  0
    5.9361   -2.0855   -4.4494 C   0  0  0  0  0  0  0  0  0  0  0  0
    4.7876   -3.0154   -9.0785 C   0  0  0  0  0  0  0  0  0  0  0  0
    5.8029    0.2356   -3.6348 O   0  0  0  0  0  0  0  0  0  0  0  0
    4.4844   -3.8056   -9.9575 O   0  0  0  0  0  0  0  0  0  0  0  0
    5.4238   -0.2546   -2.3401 C   0  0  0  0  0  0  0  0  0  0  0  0
    5.3914    0.8379   -1.2635 C   0  0  0  0  0  0  0  0  0  0  0  0
    4.4480    2.0323   -1.4801 C   0  0  0  0  0  0  0  0  0  0  0  0
    4.5174    2.9942   -0.2745 C   0  0  0  0  0  0  0  0  0  0  0  0
    3.7594    4.1730   -0.3265 N   0  0  0  0  0  0  0  0  0  0  0  0
    5.1866    2.7069    0.7208 O   0  0  0  0  0  0  0  0  0  0  0  0
    3.7732    5.0646    0.8658 C   0  0  0  0  0  0  0  0  0  0  0  0
    3.3291    4.7168   -1.6072 C   0  0  0  0  0  0  0  0  0  0  0  0
    2.4517    5.8291    1.1094 C   0  0  0  0  0  0  0  0  0  0  0  0
    4.9858    6.0119    0.8195 C   0  0  0  0  0  0  0  0  0  0  0  0
    2.5468    6.7958    2.2954 C   0  0  0  0  0  0  0  0  0  0  0  0
    5.0312    6.9687    2.0082 C   0  0  0  0  0  0  0  0  0  0  0  0
    3.7291    7.7466    2.1457 C   0  0  0  0  0  0  0  0  0  0  0  0
    5.4491    0.8372   -6.1004 H   0  0  0  0  0  0  0  0  0  0  0  0
    5.2478    0.3839   -8.6020 H   0  0  0  0  0  0  0  0  0  0  0  0
    5.7870   -4.0552   -5.3078 H   0  0  0  0  0  0  0  0  0  0  0  0
    4.9899   -4.3971   -7.6065 H   0  0  0  0  0  0  0  0  0  0  0  0
    4.7853   -1.2671  -10.3932 H   0  0  0  0  0  0  0  0  0  0  0  0
    6.2632   -2.4892   -3.4955 H   0  0  0  0  0  0  0  0  0  0  0  0
    4.4475   -0.7524   -2.3947 H   0  0  0  0  0  0  0  0  0  0  0  0
    6.1745   -0.9803   -2.0036 H   0  0  0  0  0  0  0  0  0  0  0  0
    5.1274    0.3511   -0.3147 H   0  0  0  0  0  0  0  0  0  0  0  0
    6.4089    1.2286   -1.1440 H   0  0  0  0  0  0  0  0  0  0  0  0
    4.7373    2.5522   -2.3961 H   0  0  0  0  0  0  0  0  0  0  0  0
    3.4124    1.6864   -1.5750 H   0  0  0  0  0  0  0  0  0  0  0  0
    3.9059    4.4185    1.7453 H   0  0  0  0  0  0  0  0  0  0  0  0
    4.1285    4.6023   -2.3446 H   0  0  0  0  0  0  0  0  0  0  0  0
    2.4419    4.1731   -1.9401 H   0  0  0  0  0  0  0  0  0  0  0  0
    3.1042    5.7827   -1.5392 H   0  0  0  0  0  0  0  0  0  0  0  0
    2.1582    6.4097    0.2289 H   0  0  0  0  0  0  0  0  0  0  0  0
    1.6394    5.1151    1.2925 H   0  0  0  0  0  0  0  0  0  0  0  0
    5.9130    5.4271    0.7983 H   0  0  0  0  0  0  0  0  0  0  0  0
    4.9671    6.5961   -0.1085 H   0  0  0  0  0  0  0  0  0  0  0  0
    1.6198    7.3758    2.3774 H   0  0  0  0  0  0  0  0  0  0  0  0
    2.6492    6.2293    3.2294 H   0  0  0  0  0  0  0  0  0  0  0  0
    5.8675    7.6658    1.8858 H   0  0  0  0  0  0  0  0  0  0  0  0
    5.2188    6.4037    2.9296 H   0  0  0  0  0  0  0  0  0  0  0  0
    3.5832    8.3820    1.2630 H   0  0  0  0  0  0  0  0  0  0  0  0
    3.7854    8.4143    3.0133 H   0  0  0  0  0  0  0  0  0  0  0  0
  1  2  1  0  0  0  0
  1  3  2  0  0  0  0
  1  4  1  0  0  0  0
  2  5  2  0  0  0  0
  2  6  1  0  0  0  0
  3  7  1  0  0  0  0
  3 26  1  0  0  0  0
  4  8  2  0  0  0  0
  4 27  1  0  0  0  0
  5  9  1  0  0  0  0
  5 28  1  0  0  0  0
  6 10  1  0  0  0  0
  6 29  1  0  0  0  0
  7 11  1  0  0  0  0
  7  9  2  0  0  0  0
  8 10  1  0  0  0  0
  8 30  1  0  0  0  0
  9 31  1  0  0  0  0
 10 12  2  0  0  0  0
 11 13  1  0  0  0  0
 13 14  1  0  0  0  0
 13 32  1  0  0  0  0
 13 33  1  0  0  0  0
 14 15  1  0  0  0  0
 14 34  1  0  0  0  0
 14 35  1  0  0  0  0
 15 16  1  0  0  0  0
 15 36  1  0  0  0  0
 15 37  1  0  0  0  0
 16 17  1  0  0  0  0
 16 18  2  0  0  0  0
 17 19  1  0  0  0  0
 17 20  1  0  0  0  0
 19 21  1  0  0  0  0
 19 22  1  0  0  0  0
 19 38  1  0  0  0  0
 20 39  1  0  0  0  0
 20 40  1  0  0  0  0
 20 41  1  0  0  0  0
 21 23  1  0  0  0  0
 21 42  1  0  0  0  0
 21 43  1  0  0  0  0
 22 24  1  0  0  0  0
 22 44  1  0  0  0  0
 22 45  1  0  0  0  0
 23 25  1  0  0  0  0
 23 46  1  0  0  0  0
 23 47  1  0  0  0  0
 24 25  1  0  0  0  0
 24 48  1  0  0  0  0
 24 49  1  0  0  0  0
 25 50  1  0  0  0  0
 25 51  1  0  0  0  0
M  END
>  <Mol_ID>
3434

>  <Formula>
C20H26N2O3

>  <MolWeight>
342.43204

>  <Cat>
S5806

>  <Name>
Cilostamide

>  <Synonyms>
OPC 3689

>  <Target>
PDE

>  <Form>
Free Base

>  <CAS>
68550-75-4

>  <URL>
http://www.selleckchem.com/products/cilostamide.html

$$$$
