Cinchonine.cdx
 OpenBabel08302519503D

 44 47  0  0  0  0  0  0  0  0999 V2000
    3.3162   -4.8566    1.6328 C   0  0  0  0  0  0  0  0  0  0  0  0
    3.0683   -5.5989    0.4489 C   0  0  0  0  0  0  0  0  0  0  0  0
    4.2122   -6.0695   -0.2468 C   0  0  0  0  0  0  0  0  0  0  0  0
    5.4638   -5.5594    0.0678 C   0  0  0  0  0  0  0  0  0  0  0  0
    5.6560   -4.6608    1.1158 C   0  0  0  0  0  0  0  0  0  0  0  0
    4.5864   -4.3575    1.9409 C   0  0  0  0  0  0  0  0  0  0  0  0
    1.7923   -5.8750   -0.1373 C   0  0  0  0  0  0  0  0  0  0  0  0
    1.7563   -6.9027   -1.0982 C   0  0  0  0  0  0  0  0  0  0  0  0
    2.9360   -7.4353   -1.5761 C   0  0  0  0  0  0  0  0  0  0  0  0
    4.1451   -6.9749   -1.2263 N   0  0  0  0  0  0  0  0  0  0  0  0
    0.4851   -5.1023    0.1483 C   0  0  1  0  0  0  0  0  0  0  0  0
    0.3018   -3.5230   -0.1045 C   0  0  2  0  0  0  0  0  0  0  0  0
    0.4895   -2.9364   -1.4855 N   0  0  3  0  0  0  0  0  0  0  0  0
    1.8724   -3.1699   -1.9276 C   0  0  0  0  0  0  0  0  0  0  0  0
    1.0284   -2.6674    0.9214 C   0  0  0  0  0  0  0  0  0  0  0  0
    2.8539   -2.5909   -0.9061 C   0  0  0  0  0  0  0  0  0  0  0  0
    2.1102   -1.8329    0.2270 C   0  0  3  0  0  0  0  0  0  0  0  0
    0.3433   -1.4203   -1.4567 C   0  0  0  0  0  0  0  0  0  0  0  0
    1.3244   -0.7008   -0.4576 C   0  0  2  0  0  0  0  0  0  0  0  0
    2.3388    0.3430   -0.8820 C   0  0  0  0  0  0  0  0  0  0  0  0
    2.6841    0.7409   -2.1102 C   0  0  0  0  0  0  0  0  0  0  0  0
   -0.5888   -5.7131   -0.6098 O   0  0  0  0  0  0  0  0  0  0  0  0
    2.5122   -4.6614    2.3322 H   0  0  0  0  0  0  0  0  0  0  0  0
    6.3137   -5.8512   -0.5451 H   0  0  0  0  0  0  0  0  0  0  0  0
    6.6396   -4.2358    1.2967 H   0  0  0  0  0  0  0  0  0  0  0  0
    4.7305   -3.7101    2.8026 H   0  0  0  0  0  0  0  0  0  0  0  0
    0.8221   -7.2822   -1.5001 H   0  0  0  0  0  0  0  0  0  0  0  0
    2.9349   -8.2398   -2.3053 H   0  0  0  0  0  0  0  0  0  0  0  0
    0.2308   -5.3035    1.1970 H   0  0  0  0  0  0  0  0  0  0  0  0
   -0.7736   -3.3732    0.0847 H   0  0  0  0  0  0  0  0  0  0  0  0
    2.0485   -4.2295   -2.1203 H   0  0  0  0  0  0  0  0  0  0  0  0
    2.0289   -2.6979   -2.9095 H   0  0  0  0  0  0  0  0  0  0  0  0
    0.2971   -1.9961    1.3988 H   0  0  0  0  0  0  0  0  0  0  0  0
    1.4026   -3.2367    1.7606 H   0  0  0  0  0  0  0  0  0  0  0  0
    3.5560   -1.9311   -1.4262 H   0  0  0  0  0  0  0  0  0  0  0  0
    3.4832   -3.3707   -0.5072 H   0  0  0  0  0  0  0  0  0  0  0  0
    2.8207   -1.4580    0.9711 H   0  0  0  0  0  0  0  0  0  0  0  0
   -0.6899   -1.1855   -1.1697 H   0  0  0  0  0  0  0  0  0  0  0  0
    0.4558   -1.0289   -2.4745 H   0  0  0  0  0  0  0  0  0  0  0  0
    0.6985   -0.1850    0.2855 H   0  0  0  0  0  0  0  0  0  0  0  0
    2.9254    0.7468   -0.0536 H   0  0  0  0  0  0  0  0  0  0  0  0
    3.5064    1.4427   -2.2323 H   0  0  0  0  0  0  0  0  0  0  0  0
    2.2024    0.3638   -3.0090 H   0  0  0  0  0  0  0  0  0  0  0  0
   -0.6682   -5.1717   -1.4211 H   0  0  0  0  0  0  0  0  0  0  0  0
  1  2  2  0  0  0  0
  1 23  1  0  0  0  0
  2  3  1  0  0  0  0
  2  7  1  0  0  0  0
  3  4  2  0  0  0  0
  4  5  1  0  0  0  0
  4 24  1  0  0  0  0
  5  6  2  0  0  0  0
  5 25  1  0  0  0  0
  6  1  1  0  0  0  0
  6 26  1  0  0  0  0
  7  8  2  0  0  0  0
  7 11  1  0  0  0  0
  8  9  1  0  0  0  0
  8 27  1  0  0  0  0
  9 10  2  0  0  0  0
  9 28  1  0  0  0  0
 10  3  1  0  0  0  0
 11 22  1  0  0  0  0
 11 29  1  1  0  0  0
 12 13  1  0  0  0  0
 12 15  1  0  0  0  0
 12 11  1  0  0  0  0
 12 30  1  1  0  0  0
 13 14  1  0  0  0  0
 13 18  1  0  0  0  0
 14 16  1  0  0  0  0
 14 31  1  0  0  0  0
 14 32  1  0  0  0  0
 15 17  1  0  0  0  0
 15 33  1  0  0  0  0
 15 34  1  0  0  0  0
 16 35  1  0  0  0  0
 16 36  1  0  0  0  0
 17 19  1  0  0  0  0
 17 16  1  0  0  0  0
 17 37  1  0  0  0  0
 18 38  1  0  0  0  0
 18 39  1  0  0  0  0
 19 18  1  0  0  0  0
 19 40  1  1  0  0  0
 19 20  1  0  0  0  0
 20 21  2  0  0  0  0
 20 41  1  0  0  0  0
 21 42  1  0  0  0  0
 21 43  1  0  0  0  0
 22 44  1  0  0  0  0
M  END
>  <Mol_ID>
1746

>  <Formula>
C19H22N2O

>  <MolWeight>
294.39078

>  <Cat>
S2283

>  <Name>
Cinchonine(LA40221)

>  <Synonyms>
N/A

>  <Target>
5-alpha Reductase

>  <Form>
free base

>  <CAS>
118-10-5

>  <URL>
http://selleckchem.com/products/cinchonine.html

$$$$
