Cinnamoylglycine
 OpenBabel08302521373D

 26 26  0  0  0  0  0  0  0  0999 V2000
    0.7505   -0.1444    0.0200 C   0  0  0  0  0  0  0  0  0  0  0  0
    0.0586   -0.2966   -1.1176 C   0  0  0  0  0  0  0  0  0  0  0  0
   -1.3990   -0.1042   -1.2364 C   0  0  0  0  0  0  0  0  0  0  0  0
   -1.7402    0.7140   -2.2756 N   0  0  0  0  0  0  0  0  0  0  0  0
   -2.2285   -0.5560   -0.4591 O   0  0  0  0  0  0  0  0  0  0  0  0
   -3.1291    1.0154   -2.5851 C   0  0  0  0  0  0  0  0  0  0  0  0
   -3.7334    2.0754   -1.6741 C   0  0  0  0  0  0  0  0  0  0  0  0
   -3.6111    1.8128   -0.3518 O   0  0  0  0  0  0  0  0  0  0  0  0
   -4.3486    3.0498   -2.0889 O   0  0  0  0  0  0  0  0  0  0  0  0
    0.2115    0.2550    1.3208 C   0  0  0  0  0  0  0  0  0  0  0  0
   -0.2554   -0.7095    2.2191 C   0  0  0  0  0  0  0  0  0  0  0  0
    0.2144    1.6029    1.6973 C   0  0  0  0  0  0  0  0  0  0  0  0
   -0.6855   -0.3335    3.4931 C   0  0  0  0  0  0  0  0  0  0  0  0
   -0.2164    1.9776    2.9730 C   0  0  0  0  0  0  0  0  0  0  0  0
   -0.6565    1.0075    3.8727 C   0  0  0  0  0  0  0  0  0  0  0  0
    1.8254   -0.3036    0.0142 H   0  0  0  0  0  0  0  0  0  0  0  0
    0.5736   -0.5663   -2.0318 H   0  0  0  0  0  0  0  0  0  0  0  0
   -1.0207    1.2564   -2.7376 H   0  0  0  0  0  0  0  0  0  0  0  0
   -3.1590    1.3749   -3.6176 H   0  0  0  0  0  0  0  0  0  0  0  0
   -3.7348    0.1070   -2.5054 H   0  0  0  0  0  0  0  0  0  0  0  0
   -3.1811    0.9404   -0.1668 H   0  0  0  0  0  0  0  0  0  0  0  0
   -0.2831   -1.7585    1.9349 H   0  0  0  0  0  0  0  0  0  0  0  0
    0.5644    2.3695    1.0107 H   0  0  0  0  0  0  0  0  0  0  0  0
   -1.0373   -1.0887    4.1911 H   0  0  0  0  0  0  0  0  0  0  0  0
   -0.2008    3.0230    3.2665 H   0  0  0  0  0  0  0  0  0  0  0  0
   -0.9784    1.2974    4.8697 H   0  0  0  0  0  0  0  0  0  0  0  0
  1  2  2  3  0  0  0
  1 10  1  0  0  0  0
  1 16  1  0  0  0  0
  2  3  1  0  0  0  0
  2 17  1  0  0  0  0
  3  4  1  0  0  0  0
  3  5  2  0  0  0  0
  4  6  1  0  0  0  0
  4 18  1  0  0  0  0
  6  7  1  0  0  0  0
  6 19  1  0  0  0  0
  6 20  1  0  0  0  0
  7  8  1  0  0  0  0
  7  9  2  0  0  0  0
  8 21  1  0  0  0  0
 10 11  2  0  0  0  0
 10 12  1  0  0  0  0
 11 13  1  0  0  0  0
 11 22  1  0  0  0  0
 12 14  2  0  0  0  0
 12 23  1  0  0  0  0
 13 15  2  0  0  0  0
 13 24  1  0  0  0  0
 14 15  1  0  0  0  0
 14 25  1  0  0  0  0
 15 26  1  0  0  0  0
M  END
>  <Mol_ID>
7403

>  <Formula>
C11H11NO3

>  <MolWeight>
205.20994

>  <Cat>
E4496

>  <Name>
Cinnamoylglycine

>  <Synonyms>
Cinnamoylglycine

>  <Target>
Endogenous Metabolite

>  <Form>
free base

>  <CAS>
16534-24-0

>  <URL>
https://www.selleckchem.com/products/cinnamoylglycine.html

$$$$
