Ciprofibrate.cdx
 OpenBabel08302521433D

 32 33  0  0  0  0  0  0  0  0999 V2000
    1.3225   -0.5311    0.0949 C   0  0  0  0  0  0  0  0  0  0  0  0
    0.3935   -1.5607   -0.0963 C   0  0  0  0  0  0  0  0  0  0  0  0
   -0.9557   -1.1873   -0.2101 C   0  0  0  0  0  0  0  0  0  0  0  0
   -1.3554    0.1544   -0.1132 C   0  0  0  0  0  0  0  0  0  0  0  0
   -0.4193    1.1589    0.1280 C   0  0  0  0  0  0  0  0  0  0  0  0
    0.9206    0.7981    0.2262 C   0  0  0  0  0  0  0  0  0  0  0  0
   -0.9210    2.4295    0.2442 O   0  0  0  0  0  0  0  0  0  0  0  0
   -0.2575    3.3974    1.0790 C   0  0  0  0  0  0  0  0  0  0  0  0
    0.0398    2.8696    2.4974 C   0  0  0  0  0  0  0  0  0  0  0  0
   -0.9594    2.0934    2.9950 O   0  0  0  0  0  0  0  0  0  0  0  0
    1.0393    3.1429    3.1482 O   0  0  0  0  0  0  0  0  0  0  0  0
    0.9563    4.0482    0.3948 C   0  0  0  0  0  0  0  0  0  0  0  0
   -1.2665    4.5499    1.2831 C   0  0  0  0  0  0  0  0  0  0  0  0
    0.8273   -3.0028   -0.1834 C   0  0  0  0  0  0  0  0  0  0  0  0
    0.3727   -3.9606    0.8924 C   0  0  0  0  0  0  0  0  0  0  0  0
    1.8231   -3.5797    0.8066 C   0  0  0  0  0  0  0  0  0  0  0  0
    2.3816   -0.7699    0.1580 H   0  0  0  0  0  0  0  0  0  0  0  0
   -1.7073   -1.9579   -0.3694 H   0  0  0  0  0  0  0  0  0  0  0  0
   -2.4117    0.3966   -0.2065 H   0  0  0  0  0  0  0  0  0  0  0  0
    1.7176    1.5030    0.4076 H   0  0  0  0  0  0  0  0  0  0  0  0
   -1.6490    1.9199    2.3195 H   0  0  0  0  0  0  0  0  0  0  0  0
    0.6882    4.4104   -0.6037 H   0  0  0  0  0  0  0  0  0  0  0  0
    1.3355    4.8909    0.9841 H   0  0  0  0  0  0  0  0  0  0  0  0
    1.8087    3.3861    0.2606 H   0  0  0  0  0  0  0  0  0  0  0  0
   -1.5329    5.0123    0.3256 H   0  0  0  0  0  0  0  0  0  0  0  0
   -2.2006    4.1988    1.7345 H   0  0  0  0  0  0  0  0  0  0  0  0
   -0.8517    5.3284    1.9358 H   0  0  0  0  0  0  0  0  0  0  0  0
    0.8973   -3.4029   -1.1938 H   0  0  0  0  0  0  0  0  0  0  0  0
   -0.1905   -3.5717    1.7356 H   0  0  0  0  0  0  0  0  0  0  0  0
    0.0827   -4.9577    0.5883 H   0  0  0  0  0  0  0  0  0  0  0  0
    2.5179   -4.3276    0.4452 H   0  0  0  0  0  0  0  0  0  0  0  0
    2.2213   -2.9475    1.5881 H   0  0  0  0  0  0  0  0  0  0  0  0
  1  2  2  0  0  0  0
  1 17  1  0  0  0  0
  2  3  1  0  0  0  0
  2 14  1  0  0  0  0
  3  4  2  0  0  0  0
  3 18  1  0  0  0  0
  4  5  1  0  0  0  0
  4 19  1  0  0  0  0
  5  6  2  0  0  0  0
  5  7  1  0  0  0  0
  6  1  1  0  0  0  0
  6 20  1  0  0  0  0
  7  8  1  0  0  0  0
  8  9  1  0  0  0  0
  8 12  1  0  0  0  0
  8 13  1  0  0  0  0
  9 10  1  0  0  0  0
  9 11  2  0  0  0  0
 10 21  1  0  0  0  0
 12 22  1  0  0  0  0
 12 23  1  0  0  0  0
 12 24  1  0  0  0  0
 13 25  1  0  0  0  0
 13 26  1  0  0  0  0
 13 27  1  0  0  0  0
 14 15  1  0  0  0  0
 14 28  1  0  0  0  0
 15 16  1  0  0  0  0
 15 29  1  0  0  0  0
 15 30  1  0  0  0  0
 16 14  1  0  0  0  0
 16 31  1  0  0  0  0
 16 32  1  0  0  0  0
M  END
>  <Mol_ID>
865

>  <Formula>
C13H14Cl2O3

>  <MolWeight>
289.15446

>  <Cat>
S2665

>  <Name>
Ciprofibrate

>  <Synonyms>
Win-35833

>  <Target>
PPAR

>  <Form>
free base

>  <CAS>
52214-84-3

>  <URL>
http://selleckchem.com/products/ciprofibrate.html

$$$$
