Cirsimaritin
 OpenBabel08302521473D

 37 39  0  0  0  0  0  0  0  0999 V2000
    1.4346    2.2259   -0.2603 O   0  0  0  0  0  0  0  0  0  0  0  0
   -1.2301    2.3321    0.0632 O   0  0  0  0  0  0  0  0  0  0  0  0
    3.2732   -2.3163    0.0399 O   0  0  0  0  0  0  0  0  0  0  0  0
    4.6461   -1.9590   -0.0192 C   0  0  0  0  0  0  0  0  0  0  0  0
    3.7746    0.5027   -0.0354 O   0  0  0  0  0  0  0  0  0  0  0  0
    4.1327    1.8708   -0.0751 C   0  0  0  0  0  0  0  0  0  0  0  0
   -7.4575   -3.5594    0.0579 O   0  0  0  0  0  0  0  0  0  0  0  0
   -0.1105   -1.0841   -0.0105 C   0  0  0  0  0  0  0  0  0  0  0  0
    0.0319    0.3006   -0.0598 C   0  0  0  0  0  0  0  0  0  0  0  0
   -1.3235   -1.7320    0.0145 O   0  0  0  0  0  0  0  0  0  0  0  0
    1.0213   -1.8927    0.0147 C   0  0  0  0  0  0  0  0  0  0  0  0
    1.3247    0.8716   -0.1001 C   0  0  0  0  0  0  0  0  0  0  0  0
   -1.2096    1.1071   -0.0229 C   0  0  0  0  0  0  0  0  0  0  0  0
   -2.4692   -0.9645   -0.0102 C   0  0  0  0  0  0  0  0  0  0  0  0
    2.3108   -1.3372    0.0053 C   0  0  0  0  0  0  0  0  0  0  0  0
    2.4813    0.0631   -0.0425 C   0  0  0  0  0  0  0  0  0  0  0  0
   -2.4850    0.3727   -0.0335 C   0  0  0  0  0  0  0  0  0  0  0  0
   -3.7328   -1.7091    0.0012 C   0  0  0  0  0  0  0  0  0  0  0  0
   -4.3464   -2.0812   -1.2032 C   0  0  0  0  0  0  0  0  0  0  0  0
   -4.3845   -1.9879    1.2121 C   0  0  0  0  0  0  0  0  0  0  0  0
   -5.5923   -2.7113   -1.2012 C   0  0  0  0  0  0  0  0  0  0  0  0
   -5.6311   -2.6164    1.2137 C   0  0  0  0  0  0  0  0  0  0  0  0
   -6.2305   -2.9679    0.0106 C   0  0  0  0  0  0  0  0  0  0  0  0
    1.7726    2.5937    0.5734 H   0  0  0  0  0  0  0  0  0  0  0  0
    4.8837   -1.4167   -0.9404 H   0  0  0  0  0  0  0  0  0  0  0  0
    4.9479   -1.4077    0.8770 H   0  0  0  0  0  0  0  0  0  0  0  0
    5.2280   -2.8858   -0.0371 H   0  0  0  0  0  0  0  0  0  0  0  0
    3.7486    2.3711   -0.9671 H   0  0  0  0  0  0  0  0  0  0  0  0
    3.8429    2.3800    0.8478 H   0  0  0  0  0  0  0  0  0  0  0  0
    5.2269    1.9150   -0.1295 H   0  0  0  0  0  0  0  0  0  0  0  0
   -7.7509   -3.7437   -0.8496 H   0  0  0  0  0  0  0  0  0  0  0  0
    0.9077   -2.9745    0.0449 H   0  0  0  0  0  0  0  0  0  0  0  0
   -3.3981    0.9588   -0.0405 H   0  0  0  0  0  0  0  0  0  0  0  0
   -3.8595   -1.8683   -2.1536 H   0  0  0  0  0  0  0  0  0  0  0  0
   -3.9312   -1.7053    2.1598 H   0  0  0  0  0  0  0  0  0  0  0  0
   -6.0572   -2.9767   -2.1453 H   0  0  0  0  0  0  0  0  0  0  0  0
   -6.1428   -2.8195    2.1525 H   0  0  0  0  0  0  0  0  0  0  0  0
  1 12  1  0  0  0  0
  1 24  1  0  0  0  0
  2 13  2  0  0  0  0
  3  4  1  0  0  0  0
  3 15  1  0  0  0  0
  4 25  1  0  0  0  0
  4 26  1  0  0  0  0
  4 27  1  0  0  0  0
  5  6  1  0  0  0  0
  5 16  1  0  0  0  0
  6 28  1  0  0  0  0
  6 29  1  0  0  0  0
  6 30  1  0  0  0  0
  7 23  1  0  0  0  0
  7 31  1  0  0  0  0
  8  9  2  0  0  0  0
  8 10  1  0  0  0  0
  8 11  1  0  0  0  0
  9 12  1  0  0  0  0
  9 13  1  0  0  0  0
 10 14  1  0  0  0  0
 11 15  2  0  0  0  0
 11 32  1  0  0  0  0
 12 16  2  0  0  0  0
 13 17  1  0  0  0  0
 14 17  2  0  0  0  0
 14 18  1  0  0  0  0
 15 16  1  0  0  0  0
 17 33  1  0  0  0  0
 18 19  2  0  0  0  0
 18 20  1  0  0  0  0
 19 21  1  0  0  0  0
 19 34  1  0  0  0  0
 20 22  2  0  0  0  0
 20 35  1  0  0  0  0
 21 23  2  0  0  0  0
 21 36  1  0  0  0  0
 22 23  1  0  0  0  0
 22 37  1  0  0  0  0
M  END
>  <Mol_ID>
9754

>  <Formula>
C17H14O6

>  <MolWeight>
314.28946

>  <Cat>
E2234

>  <Name>
Cirsimaritin

>  <Synonyms>
N/A

>  <Target>
GABA Receptor, Antioxidant

>  <Form>
free base

>  <CAS>
6601-62-3

>  <URL>
https://www.selleckchem.com/products/cirsimaritin.html

$$$$
