Cirtuvivint
 OpenBabel08302521383D

 57 61  0  0  0  0  0  0  0  0999 V2000
    0.8542   -0.0659    0.0146 N   0  0  0  0  0  0  0  0  0  0  0  0
    0.2180   -0.0028    1.2337 C   0  0  0  0  0  0  0  0  0  0  0  0
   -0.9655    0.2663    1.4189 O   0  0  0  0  0  0  0  0  0  0  0  0
   -5.2365    7.0789   -3.5200 C   0  0  0  0  0  0  0  0  0  0  0  0
    8.0083    2.5527    3.1918 C   0  0  0  0  0  0  0  0  0  0  0  0
   -1.2277    1.5401   -2.5750 C   0  0  0  0  0  0  0  0  0  0  0  0
   -1.1093    0.5601   -3.5747 C   0  0  0  0  0  0  0  0  0  0  0  0
   -1.9828    2.6975   -2.8329 C   0  0  0  0  0  0  0  0  0  0  0  0
   -0.5849    1.3343   -1.3493 C   0  0  0  0  0  0  0  0  0  0  0  0
   -1.8138    0.7092   -4.7796 C   0  0  0  0  0  0  0  0  0  0  0  0
   -0.2673   -0.5234   -3.3120 C   0  0  0  0  0  0  0  0  0  0  0  0
   -2.6482    2.8749   -4.0556 C   0  0  0  0  0  0  0  0  0  0  0  0
    0.2013    0.2012   -1.1875 C   0  0  0  0  0  0  0  0  0  0  0  0
   -2.5781    1.8567   -5.0141 C   0  0  0  0  0  0  0  0  0  0  0  0
    0.4301   -0.6934   -2.1648 N   0  0  0  0  0  0  0  0  0  0  0  0
   -3.3741    4.1014   -4.3396 C   0  0  0  0  0  0  0  0  0  0  0  0
   -3.9449    4.9292   -3.3945 C   0  0  0  0  0  0  0  0  0  0  0  0
   -3.6549    4.7480   -5.5671 C   0  0  0  0  0  0  0  0  0  0  0  0
   -4.5101    5.9654   -4.0793 N   0  0  0  0  0  0  0  0  0  0  0  0
   -4.3467    5.8803   -5.4110 N   0  0  0  0  0  0  0  0  0  0  0  0
    1.0674   -0.3439    2.3970 C   0  0  0  0  0  0  0  0  0  0  0  0
    2.3934    0.0629    2.4076 C   0  0  0  0  0  0  0  0  0  0  0  0
    0.5266   -0.9705    3.5114 C   0  0  0  0  0  0  0  0  0  0  0  0
    3.1670   -0.1439    3.5434 C   0  0  0  0  0  0  0  0  0  0  0  0
    1.3650   -1.1535    4.5958 C   0  0  0  0  0  0  0  0  0  0  0  0
    2.6561   -0.7411    4.6358 N   0  0  0  0  0  0  0  0  0  0  0  0
    4.4396    0.3948    3.5453 N   0  0  0  0  0  0  0  0  0  0  0  0
    5.0556    0.7531    4.8229 C   0  0  0  0  0  0  0  0  0  0  0  0
    5.4047   -0.1555    2.5867 C   0  0  0  0  0  0  0  0  0  0  0  0
    6.1159    1.8482    4.5283 C   0  0  0  0  0  0  0  0  0  0  0  0
    6.4651    0.9299    2.2981 C   0  0  0  0  0  0  0  0  0  0  0  0
    7.1311    1.4305    3.5248 N   0  0  0  0  0  0  0  0  0  0  0  0
    1.6059   -0.7351   -0.0842 H   0  0  0  0  0  0  0  0  0  0  0  0
   -4.7716    8.0057   -3.8649 H   0  0  0  0  0  0  0  0  0  0  0  0
   -6.2728    7.0165   -3.8603 H   0  0  0  0  0  0  0  0  0  0  0  0
   -5.1969    7.0270   -2.4290 H   0  0  0  0  0  0  0  0  0  0  0  0
    8.7771    2.2374    2.4778 H   0  0  0  0  0  0  0  0  0  0  0  0
    7.4595    3.3931    2.7545 H   0  0  0  0  0  0  0  0  0  0  0  0
    8.5319    2.9101    4.0868 H   0  0  0  0  0  0  0  0  0  0  0  0
   -2.0233    3.4780   -2.0759 H   0  0  0  0  0  0  0  0  0  0  0  0
   -0.6783    2.0567   -0.5448 H   0  0  0  0  0  0  0  0  0  0  0  0
   -1.7675   -0.0621   -5.5453 H   0  0  0  0  0  0  0  0  0  0  0  0
   -0.1210   -1.3114   -4.0450 H   0  0  0  0  0  0  0  0  0  0  0  0
   -3.1131    1.9426   -5.9576 H   0  0  0  0  0  0  0  0  0  0  0  0
   -4.0046    4.8688   -2.3169 H   0  0  0  0  0  0  0  0  0  0  0  0
   -3.3750    4.4463   -6.5681 H   0  0  0  0  0  0  0  0  0  0  0  0
    2.8101    0.6262    1.5805 H   0  0  0  0  0  0  0  0  0  0  0  0
   -0.5068   -1.2897    3.5407 H   0  0  0  0  0  0  0  0  0  0  0  0
    1.0084   -1.6372    5.5007 H   0  0  0  0  0  0  0  0  0  0  0  0
    5.5257   -0.1206    5.2930 H   0  0  0  0  0  0  0  0  0  0  0  0
    4.3187    1.1650    5.5231 H   0  0  0  0  0  0  0  0  0  0  0  0
    5.8808   -1.0538    3.0019 H   0  0  0  0  0  0  0  0  0  0  0  0
    4.9348   -0.4459    1.6397 H   0  0  0  0  0  0  0  0  0  0  0  0
    6.6155    2.1166    5.4661 H   0  0  0  0  0  0  0  0  0  0  0  0
    5.5883    2.7432    4.1679 H   0  0  0  0  0  0  0  0  0  0  0  0
    5.9694    1.7591    1.7737 H   0  0  0  0  0  0  0  0  0  0  0  0
    7.2154    0.5115    1.6175 H   0  0  0  0  0  0  0  0  0  0  0  0
  1  2  1  0  0  0  0
  1 13  1  0  0  0  0
  1 33  1  0  0  0  0
  2  3  2  0  0  0  0
  2 21  1  0  0  0  0
  4 19  1  0  0  0  0
  4 34  1  0  0  0  0
  4 35  1  0  0  0  0
  4 36  1  0  0  0  0
  5 32  1  0  0  0  0
  5 37  1  0  0  0  0
  5 38  1  0  0  0  0
  5 39  1  0  0  0  0
  6  7  1  0  0  0  0
  6  8  2  0  0  0  0
  6  9  1  0  0  0  0
  7 10  2  0  0  0  0
  7 11  1  0  0  0  0
  8 12  1  0  0  0  0
  8 40  1  0  0  0  0
  9 13  2  0  0  0  0
  9 41  1  0  0  0  0
 10 14  1  0  0  0  0
 10 42  1  0  0  0  0
 11 15  2  0  0  0  0
 11 43  1  0  0  0  0
 12 14  2  0  0  0  0
 12 16  1  0  0  0  0
 13 15  1  0  0  0  0
 14 44  1  0  0  0  0
 16 17  2  0  0  0  0
 16 18  1  0  0  0  0
 17 19  1  0  0  0  0
 17 45  1  0  0  0  0
 18 20  2  0  0  0  0
 18 46  1  0  0  0  0
 19 20  1  0  0  0  0
 21 22  2  0  0  0  0
 21 23  1  0  0  0  0
 22 24  1  0  0  0  0
 22 47  1  0  0  0  0
 23 25  2  0  0  0  0
 23 48  1  0  0  0  0
 24 26  2  0  0  0  0
 24 27  1  0  0  0  0
 25 26  1  0  0  0  0
 25 49  1  0  0  0  0
 27 28  1  0  0  0  0
 27 29  1  0  0  0  0
 28 30  1  0  0  0  0
 28 50  1  0  0  0  0
 28 51  1  0  0  0  0
 29 31  1  0  0  0  0
 29 52  1  0  0  0  0
 29 53  1  0  0  0  0
 30 32  1  0  0  0  0
 30 54  1  0  0  0  0
 30 55  1  0  0  0  0
 31 32  1  0  0  0  0
 31 56  1  0  0  0  0
 31 57  1  0  0  0  0
M  END
>  <Mol_ID>
7695

>  <Formula>
C24H25N7O

>  <MolWeight>
427.5016

>  <Cat>
E2668

>  <Name>
Cirtuvivint

>  <Synonyms>
SM08502

>  <Target>
CDK

>  <Form>
free base

>  <CAS>
2143917-62-6

>  <URL>
https://www.selleckchem.com/products/cirtuvivint.html

$$$$
