CL-25685
 OpenBabel08302521403D

 35 37  0  0  0  0  0  0  0  0999 V2000
    0.0848   -0.5654   -0.5926 C   0  0  0  0  0  0  0  0  0  0  0  0
    0.0269    0.6644    0.1073 C   0  0  0  0  0  0  0  0  0  0  0  0
    1.3041   -1.2686   -0.6569 C   0  0  0  0  0  0  0  0  0  0  0  0
   -1.0786   -1.0442   -1.2198 C   0  0  0  0  0  0  0  0  0  0  0  0
    1.1837    1.1602    0.7240 C   0  0  0  0  0  0  0  0  0  0  0  0
   -1.1832    1.3751    0.1592 C   0  0  0  0  0  0  0  0  0  0  0  0
    2.4545   -0.7576   -0.0400 C   0  0  0  0  0  0  0  0  0  0  0  0
   -2.2732   -0.3248   -1.1606 C   0  0  0  0  0  0  0  0  0  0  0  0
    2.3888    0.4598    0.6455 C   0  0  0  0  0  0  0  0  0  0  0  0
   -2.3261    0.8849   -0.4725 C   0  0  0  0  0  0  0  0  0  0  0  0
    3.7791   -1.4299   -0.1410 C   0  0  0  0  0  0  0  0  0  0  0  0
    3.7748   -2.8057   -0.2202 N   0  0  0  0  0  0  0  0  0  0  0  0
    4.8034   -0.7543   -0.1334 O   0  0  0  0  0  0  0  0  0  0  0  0
    5.0107   -3.5571   -0.2571 C   0  0  0  0  0  0  0  0  0  0  0  0
    5.4904   -3.9384    1.1212 C   0  0  0  0  0  0  0  0  0  0  0  0
    5.1101   -5.1545    1.7060 C   0  0  0  0  0  0  0  0  0  0  0  0
    6.3271   -3.0741    1.8428 C   0  0  0  0  0  0  0  0  0  0  0  0
    5.5810   -5.5093    2.9725 C   0  0  0  0  0  0  0  0  0  0  0  0
    6.7973   -3.4301    3.1081 C   0  0  0  0  0  0  0  0  0  0  0  0
    6.4284   -4.6502    3.6704 C   0  0  0  0  0  0  0  0  0  0  0  0
    1.3575   -2.1916   -1.2272 H   0  0  0  0  0  0  0  0  0  0  0  0
   -1.0624   -1.9836   -1.7686 H   0  0  0  0  0  0  0  0  0  0  0  0
    1.1617    2.1065    1.2607 H   0  0  0  0  0  0  0  0  0  0  0  0
   -1.2416    2.3242    0.6879 H   0  0  0  0  0  0  0  0  0  0  0  0
   -3.1636   -0.7044   -1.6556 H   0  0  0  0  0  0  0  0  0  0  0  0
    3.2803    0.8701    1.1146 H   0  0  0  0  0  0  0  0  0  0  0  0
   -3.2540    1.4492   -0.4301 H   0  0  0  0  0  0  0  0  0  0  0  0
    2.9254   -3.3121   -0.0173 H   0  0  0  0  0  0  0  0  0  0  0  0
    4.8269   -4.4593   -0.8517 H   0  0  0  0  0  0  0  0  0  0  0  0
    5.7854   -2.9848   -0.7811 H   0  0  0  0  0  0  0  0  0  0  0  0
    4.4544   -5.8396    1.1747 H   0  0  0  0  0  0  0  0  0  0  0  0
    6.6193   -2.1154    1.4155 H   0  0  0  0  0  0  0  0  0  0  0  0
    5.2909   -6.4591    3.4145 H   0  0  0  0  0  0  0  0  0  0  0  0
    7.4527   -2.7548    3.6518 H   0  0  0  0  0  0  0  0  0  0  0  0
    6.8004   -4.9299    4.6525 H   0  0  0  0  0  0  0  0  0  0  0  0
  1  2  1  0  0  0  0
  1  3  2  0  0  0  0
  1  4  1  0  0  0  0
  2  5  2  0  0  0  0
  2  6  1  0  0  0  0
  3  7  1  0  0  0  0
  3 21  1  0  0  0  0
  4  8  2  0  0  0  0
  4 22  1  0  0  0  0
  5  9  1  0  0  0  0
  5 23  1  0  0  0  0
  6 10  2  0  0  0  0
  6 24  1  0  0  0  0
  7 11  1  0  0  0  0
  7  9  2  0  0  0  0
  8 10  1  0  0  0  0
  8 25  1  0  0  0  0
  9 26  1  0  0  0  0
 10 27  1  0  0  0  0
 11 12  1  0  0  0  0
 11 13  2  0  0  0  0
 12 14  1  0  0  0  0
 12 28  1  0  0  0  0
 14 15  1  0  0  0  0
 14 29  1  0  0  0  0
 14 30  1  0  0  0  0
 15 16  2  0  0  0  0
 15 17  1  0  0  0  0
 16 18  1  0  0  0  0
 16 31  1  0  0  0  0
 17 19  2  0  0  0  0
 17 32  1  0  0  0  0
 18 20  2  0  0  0  0
 18 33  1  0  0  0  0
 19 20  1  0  0  0  0
 19 34  1  0  0  0  0
 20 35  1  0  0  0  0
M  END
>  <Mol_ID>
8274

>  <Formula>
C18H15NO

>  <MolWeight>
261.3178

>  <Cat>
P2004

>  <Name>
CL-25685

>  <Synonyms>
N/A

>  <Target>
¦Ã-secretase,5-HT3 Receptor

>  <Form>
free base

>  <CAS>
149358-58-7

>  <URL>
N/A

$$$$
