CL-281092
 OpenBabel08302521403D

 42 44  0  0  0  0  0  0  0  0999 V2000
   -0.1719   -1.1182    0.1256 N   0  0  0  0  0  0  0  0  0  0  0  0
   -0.4228   -2.4986    0.0494 C   0  0  0  0  0  0  0  0  0  0  0  0
    1.0963   -0.5470    0.2599 C   0  0  0  0  0  0  0  0  0  0  0  0
   -1.0786   -0.1233   -0.2870 N   0  0  0  0  0  0  0  0  0  0  0  0
    0.0205   -3.3196    1.0925 C   0  0  0  0  0  0  0  0  0  0  0  0
   -1.1323   -3.0671   -1.0148 C   0  0  0  0  0  0  0  0  0  0  0  0
    0.9211    0.9249    0.0382 C   0  0  0  0  0  0  0  0  0  0  0  0
    2.1831   -1.0602    0.4829 O   0  0  0  0  0  0  0  0  0  0  0  0
   -0.4024    1.1026   -0.1374 C   0  0  0  0  0  0  0  0  0  0  0  0
   -2.4933   -0.2770    0.0384 C   0  0  0  0  0  0  0  0  0  0  0  0
   -0.2796   -4.6825    1.0964 C   0  0  0  0  0  0  0  0  0  0  0  0
   -1.3944   -4.4400   -1.0318 C   0  0  0  0  0  0  0  0  0  0  0  0
    2.0048    1.7703    0.0879 N   0  0  0  0  0  0  0  0  0  0  0  0
   -1.1745    2.3845   -0.0557 C   0  0  0  0  0  0  0  0  0  0  0  0
   -0.9814   -5.2432    0.0312 C   0  0  0  0  0  0  0  0  0  0  0  0
    2.0688    3.0229   -0.4793 C   0  0  0  0  0  0  0  0  0  0  0  0
    3.3263    3.5974   -0.3785 N   0  0  0  0  0  0  0  0  0  0  0  0
    1.1327    3.5667   -1.0597 O   0  0  0  0  0  0  0  0  0  0  0  0
    3.5267    4.9216   -0.8407 C   0  0  0  0  0  0  0  0  0  0  0  0
    2.6559    5.9527   -0.4729 C   0  0  0  0  0  0  0  0  0  0  0  0
    4.5879    5.1892   -1.7068 C   0  0  0  0  0  0  0  0  0  0  0  0
    2.8087    7.2308   -1.0105 C   0  0  0  0  0  0  0  0  0  0  0  0
    4.7182    6.4615   -2.2713 C   0  0  0  0  0  0  0  0  0  0  0  0
    3.8281    7.4793   -1.9262 C   0  0  0  0  0  0  0  0  0  0  0  0
    0.5588   -2.8906    1.9342 H   0  0  0  0  0  0  0  0  0  0  0  0
   -1.4474   -2.4525   -1.8549 H   0  0  0  0  0  0  0  0  0  0  0  0
   -2.7057    0.0825    1.0494 H   0  0  0  0  0  0  0  0  0  0  0  0
   -3.0913    0.3025   -0.6741 H   0  0  0  0  0  0  0  0  0  0  0  0
   -2.8429   -1.3091   -0.0304 H   0  0  0  0  0  0  0  0  0  0  0  0
    0.0323   -5.3019    1.9331 H   0  0  0  0  0  0  0  0  0  0  0  0
   -1.9194   -4.8840   -1.8736 H   0  0  0  0  0  0  0  0  0  0  0  0
    2.8787    1.3196    0.3315 H   0  0  0  0  0  0  0  0  0  0  0  0
   -1.5683    2.6756   -1.0309 H   0  0  0  0  0  0  0  0  0  0  0  0
   -2.0085    2.2799    0.6445 H   0  0  0  0  0  0  0  0  0  0  0  0
   -0.5861    3.2037    0.3651 H   0  0  0  0  0  0  0  0  0  0  0  0
   -1.2016   -6.3078    0.0284 H   0  0  0  0  0  0  0  0  0  0  0  0
    4.0897    2.9537   -0.5297 H   0  0  0  0  0  0  0  0  0  0  0  0
    1.8437    5.7652    0.2251 H   0  0  0  0  0  0  0  0  0  0  0  0
    5.2696    4.4033   -2.0159 H   0  0  0  0  0  0  0  0  0  0  0  0
    2.1167    8.0215   -0.7328 H   0  0  0  0  0  0  0  0  0  0  0  0
    5.4992    6.6531   -3.0022 H   0  0  0  0  0  0  0  0  0  0  0  0
    3.9219    8.4630   -2.3786 H   0  0  0  0  0  0  0  0  0  0  0  0
  1  2  1  0  0  0  0
  1  3  1  0  0  0  0
  1  4  1  0  0  0  0
  2  5  2  0  0  0  0
  2  6  1  0  0  0  0
  3  7  1  0  0  0  0
  3  8  2  0  0  0  0
  4  9  1  0  0  0  0
  4 10  1  0  0  0  0
  5 11  1  0  0  0  0
  5 25  1  0  0  0  0
  6 12  2  0  0  0  0
  6 26  1  0  0  0  0
  7 13  1  0  0  0  0
  7  9  2  0  0  0  0
  9 14  1  0  0  0  0
 10 27  1  0  0  0  0
 10 28  1  0  0  0  0
 10 29  1  0  0  0  0
 11 15  2  0  0  0  0
 11 30  1  0  0  0  0
 12 15  1  0  0  0  0
 12 31  1  0  0  0  0
 13 16  1  0  0  0  0
 13 32  1  0  0  0  0
 14 33  1  0  0  0  0
 14 34  1  0  0  0  0
 14 35  1  0  0  0  0
 15 36  1  0  0  0  0
 16 17  1  0  0  0  0
 16 18  2  0  0  0  0
 17 19  1  0  0  0  0
 17 37  1  0  0  0  0
 19 20  2  0  0  0  0
 19 21  1  0  0  0  0
 20 22  1  0  0  0  0
 20 38  1  0  0  0  0
 21 23  2  0  0  0  0
 21 39  1  0  0  0  0
 22 24  2  0  0  0  0
 22 40  1  0  0  0  0
 23 24  1  0  0  0  0
 23 41  1  0  0  0  0
 24 42  1  0  0  0  0
M  END
>  <Mol_ID>
8305

>  <Formula>
C18H18N4O2

>  <MolWeight>
322.36112

>  <Cat>
P2007

>  <Name>
CL-281092

>  <Synonyms>
N/A

>  <Target>
CCK receptor

>  <Form>
free base

>  <CAS>
51944-15-1

>  <URL>
N/A

$$$$
