CL-236770
 OpenBabel08302521423D

 28 29  0  0  0  0  0  0  0  0999 V2000
    1.4236   -0.2264    0.0684 C   0  0  0  0  0  0  0  0  0  0  0  0
    2.9139   -0.4517    0.2975 C   0  0  3  0  0  0  0  0  0  0  0  0
    0.6756   -1.1875   -0.6329 C   0  0  0  0  0  0  0  0  0  0  0  0
    0.7493    0.9029    0.5647 C   0  0  0  0  0  0  0  0  0  0  0  0
    3.6725    0.2049   -0.7503 N   0  0  0  0  0  0  0  0  0  0  0  0
    3.3678    0.0418    1.6769 C   0  0  0  0  0  0  0  0  0  0  0  0
   -0.7077   -1.0593   -0.7694 C   0  0  0  0  0  0  0  0  0  0  0  0
   -0.6360    1.0265    0.4337 C   0  0  0  0  0  0  0  0  0  0  0  0
    5.0136    0.0401   -0.8939 C   0  0  0  0  0  0  0  0  0  0  0  0
   -1.3670    0.0395   -0.2209 C   0  0  0  0  0  0  0  0  0  0  0  0
    5.7422   -0.9098   -0.4185 N   0  0  0  0  0  0  0  0  0  0  0  0
    5.8231    1.2726   -1.8307 S   0  0  0  0  0  0  0  0  0  0  0  0
    7.1630   -0.6586   -0.7283 C   0  0  0  0  0  0  0  0  0  0  0  0
    7.2785    0.2200   -1.9605 C   0  0  0  0  0  0  0  0  0  0  0  0
    3.0990   -1.5336    0.2582 H   0  0  0  0  0  0  0  0  0  0  0  0
    1.1688   -2.0592   -1.0599 H   0  0  0  0  0  0  0  0  0  0  0  0
    1.2877    1.6909    1.0851 H   0  0  0  0  0  0  0  0  0  0  0  0
    3.3162    1.1031   -1.0526 H   0  0  0  0  0  0  0  0  0  0  0  0
    2.7024   -0.3244    2.4664 H   0  0  0  0  0  0  0  0  0  0  0  0
    4.3782   -0.3109    1.9078 H   0  0  0  0  0  0  0  0  0  0  0  0
    3.3947    1.1362    1.7305 H   0  0  0  0  0  0  0  0  0  0  0  0
   -1.2771   -1.8248   -1.2923 H   0  0  0  0  0  0  0  0  0  0  0  0
   -1.1454    1.8888    0.8569 H   0  0  0  0  0  0  0  0  0  0  0  0
   -2.4468    0.1267   -0.3039 H   0  0  0  0  0  0  0  0  0  0  0  0
    7.6794   -1.6106   -0.8950 H   0  0  0  0  0  0  0  0  0  0  0  0
    7.6366   -0.1841    0.1406 H   0  0  0  0  0  0  0  0  0  0  0  0
    8.2084    0.7942   -1.9766 H   0  0  0  0  0  0  0  0  0  0  0  0
    7.2077   -0.3771   -2.8748 H   0  0  0  0  0  0  0  0  0  0  0  0
  1  2  1  0  0  0  0
  1  3  2  0  0  0  0
  1  4  1  0  0  0  0
  2  5  1  0  0  0  0
  2  6  1  0  0  0  0
  2 15  1  0  0  0  0
  3  7  1  0  0  0  0
  3 16  1  0  0  0  0
  4  8  2  0  0  0  0
  4 17  1  0  0  0  0
  5  9  1  0  0  0  0
  5 18  1  0  0  0  0
  6 19  1  0  0  0  0
  6 20  1  0  0  0  0
  6 21  1  0  0  0  0
  7 10  2  0  0  0  0
  7 22  1  0  0  0  0
  8 10  1  0  0  0  0
  8 23  1  0  0  0  0
  9 11  2  0  0  0  0
  9 12  1  0  0  0  0
 10 24  1  0  0  0  0
 11 13  1  0  0  0  0
 12 14  1  0  0  0  0
 13 14  1  0  0  0  0
 13 25  1  0  0  0  0
 13 26  1  0  0  0  0
 14 27  1  0  0  0  0
 14 28  1  0  0  0  0
M  END
>  <Mol_ID>
8557

>  <Formula>
C11H14N2S

>  <MolWeight>
206.30726

>  <Cat>
P2003

>  <Name>
CL-236770

>  <Synonyms>
N/A

>  <Target>
octopamine

>  <Form>
free base

>  <CAS>
853694-04-9

>  <URL>
N/A

$$$$
