CL-302396
 OpenBabel08302521393D

 35 37  0  0  0  0  0  0  0  0999 V2000
   -0.2618   -1.3094   -0.0490 N   0  0  0  0  0  0  0  0  0  0  0  0
    1.0192   -0.7401   -0.0762 C   0  0  0  0  0  0  0  0  0  0  0  0
   -0.5555   -2.7361    0.0680 C   0  0  0  0  0  0  0  0  0  0  0  0
   -1.1239   -0.2365   -0.0987 C   0  0  0  0  0  0  0  0  0  0  0  0
    2.3521   -1.3772   -0.0695 C   0  0  0  0  0  0  0  0  0  0  0  0
    0.8765    0.5741   -0.0741 N   0  0  0  0  0  0  0  0  0  0  0  0
   -0.7570   -3.4059   -1.3051 C   0  0  0  0  0  0  0  0  0  0  0  0
   -1.6936   -3.1551    1.0274 C   0  0  0  0  0  0  0  0  0  0  0  0
   -0.4450    0.8860   -0.0922 N   0  0  0  0  0  0  0  0  0  0  0  0
   -2.8507   -0.2367   -0.1571 S   0  0  0  0  0  0  0  0  0  0  0  0
    2.6564   -2.6028   -0.6729 C   0  0  0  0  0  0  0  0  0  0  0  0
    3.4206   -0.6638    0.5068 C   0  0  0  0  0  0  0  0  0  0  0  0
   -0.7975   -4.9281   -1.1543 C   0  0  0  0  0  0  0  0  0  0  0  0
   -1.8204   -4.6786    1.1382 C   0  0  0  0  0  0  0  0  0  0  0  0
    3.9591   -3.1164   -0.6688 C   0  0  0  0  0  0  0  0  0  0  0  0
    4.7265   -1.1654    0.5025 C   0  0  0  0  0  0  0  0  0  0  0  0
   -1.9382   -5.3440   -0.2327 C   0  0  0  0  0  0  0  0  0  0  0  0
    4.9931   -2.3995   -0.0770 C   0  0  0  0  0  0  0  0  0  0  0  0
    0.3438   -3.1660    0.5280 H   0  0  0  0  0  0  0  0  0  0  0  0
   -1.6881   -3.0567   -1.7667 H   0  0  0  0  0  0  0  0  0  0  0  0
    0.0365   -3.1357   -2.0082 H   0  0  0  0  0  0  0  0  0  0  0  0
   -1.5367   -2.7197    2.0202 H   0  0  0  0  0  0  0  0  0  0  0  0
   -2.6636   -2.8033    0.6757 H   0  0  0  0  0  0  0  0  0  0  0  0
   -3.0857   -1.4321   -0.7026 H   0  0  0  0  0  0  0  0  0  0  0  0
    1.9106   -3.1833   -1.1940 H   0  0  0  0  0  0  0  0  0  0  0  0
    3.2422    0.3156    0.9508 H   0  0  0  0  0  0  0  0  0  0  0  0
   -0.9179   -5.3997   -2.1350 H   0  0  0  0  0  0  0  0  0  0  0  0
    0.1568   -5.2870   -0.7471 H   0  0  0  0  0  0  0  0  0  0  0  0
   -2.7062   -4.9262    1.7350 H   0  0  0  0  0  0  0  0  0  0  0  0
   -0.9516   -5.0823    1.6700 H   0  0  0  0  0  0  0  0  0  0  0  0
    4.1645   -4.0704   -1.1469 H   0  0  0  0  0  0  0  0  0  0  0  0
    5.5321   -0.5837    0.9444 H   0  0  0  0  0  0  0  0  0  0  0  0
   -2.8929   -5.0641   -0.6964 H   0  0  0  0  0  0  0  0  0  0  0  0
   -1.9489   -6.4337   -0.1173 H   0  0  0  0  0  0  0  0  0  0  0  0
    6.0073   -2.7904   -0.0892 H   0  0  0  0  0  0  0  0  0  0  0  0
  1  2  1  0  0  0  0
  1  3  1  0  0  0  0
  1  4  1  0  0  0  0
  2  5  1  0  0  0  0
  2  6  2  0  0  0  0
  3  7  1  0  0  0  0
  3  8  1  0  0  0  0
  3 19  1  0  0  0  0
  4  9  2  0  0  0  0
  4 10  1  0  0  0  0
  5 11  2  0  0  0  0
  5 12  1  0  0  0  0
  6  9  1  0  0  0  0
  7 13  1  0  0  0  0
  7 20  1  0  0  0  0
  7 21  1  0  0  0  0
  8 14  1  0  0  0  0
  8 22  1  0  0  0  0
  8 23  1  0  0  0  0
 10 24  1  0  0  0  0
 11 15  1  0  0  0  0
 11 25  1  0  0  0  0
 12 16  2  0  0  0  0
 12 26  1  0  0  0  0
 13 17  1  0  0  0  0
 13 27  1  0  0  0  0
 13 28  1  0  0  0  0
 14 17  1  0  0  0  0
 14 29  1  0  0  0  0
 14 30  1  0  0  0  0
 15 18  2  0  0  0  0
 15 31  1  0  0  0  0
 16 18  1  0  0  0  0
 16 32  1  0  0  0  0
 17 33  1  0  0  0  0
 17 34  1  0  0  0  0
 18 35  1  0  0  0  0
M  END
>  <Mol_ID>
8141

>  <Formula>
C14H17N3S

>  <MolWeight>
259.36988

>  <Cat>
P2011

>  <Name>
CL-302396

>  <Synonyms>
N/A

>  <Target>
others

>  <Form>
free base

>  <CAS>
38942-57-3

>  <URL>
N/A

$$$$
