CL-407669
 OpenBabel08302521403D

 51 53  0  0  0  0  0  0  0  0999 V2000
    1.6295    1.0315    0.0943 N   0  0  0  0  0  0  0  0  0  0  0  0
    0.3017    0.6563    0.0921 C   0  0  0  0  0  0  0  0  0  0  0  0
    2.3788   -0.1460    0.1718 C   0  0  0  0  0  0  0  0  0  0  0  0
    2.0870    2.3987   -0.0803 C   0  0  0  0  0  0  0  0  0  0  0  0
    0.3181   -0.7067    0.0584 C   0  0  0  0  0  0  0  0  0  0  0  0
   -0.9216    1.3897    0.0905 C   0  0  0  0  0  0  0  0  0  0  0  0
    3.7371   -0.2233    0.2581 N   0  0  0  0  0  0  0  0  0  0  0  0
    1.5812   -1.1957    0.0733 N   0  0  0  0  0  0  0  0  0  0  0  0
    2.8420    2.7004   -1.3805 C   0  0  0  0  0  0  0  0  0  0  0  0
   -0.8367   -1.4568    0.0106 N   0  0  0  0  0  0  0  0  0  0  0  0
   -2.0326    0.5783    0.0315 N   0  0  0  0  0  0  0  0  0  0  0  0
   -1.0310    2.6096    0.1463 O   0  0  0  0  0  0  0  0  0  0  0  0
    4.4069   -1.3316   -0.4395 C   0  0  0  0  0  0  0  0  0  0  0  0
    4.5299    0.6301    1.1381 C   0  0  0  0  0  0  0  0  0  0  0  0
    2.0399    2.3553   -2.6378 C   0  0  0  0  0  0  0  0  0  0  0  0
   -2.0570   -0.8008    0.0000 C   0  0  0  0  0  0  0  0  0  0  0  0
   -0.7780   -2.9049   -0.0192 C   0  0  0  0  0  0  0  0  0  0  0  0
    5.3683   -2.0999    0.4636 C   0  0  0  0  0  0  0  0  0  0  0  0
    5.5513   -0.1511    1.9725 C   0  0  0  0  0  0  0  0  0  0  0  0
    2.8288    2.6484   -3.9171 C   0  0  0  0  0  0  0  0  0  0  0  0
   -3.1491   -1.3758   -0.0327 O   0  0  0  0  0  0  0  0  0  0  0  0
    6.3420   -1.1496    1.1417 C   0  0  0  0  0  0  0  0  0  0  0  0
    2.0689    2.1515   -5.1487 C   0  0  0  0  0  0  0  0  0  0  0  0
    2.8280    2.4375   -6.4339 C   0  0  0  0  0  0  0  0  0  0  0  0
    1.2190    3.0616   -0.0473 H   0  0  0  0  0  0  0  0  0  0  0  0
    2.6858    2.6661    0.7939 H   0  0  0  0  0  0  0  0  0  0  0  0
    3.0765    3.7732   -1.3947 H   0  0  0  0  0  0  0  0  0  0  0  0
    3.7994    2.1708   -1.3939 H   0  0  0  0  0  0  0  0  0  0  0  0
   -2.9302    1.0374    0.0343 H   0  0  0  0  0  0  0  0  0  0  0  0
    4.9633   -0.9182   -1.2894 H   0  0  0  0  0  0  0  0  0  0  0  0
    3.6935   -2.0500   -0.8621 H   0  0  0  0  0  0  0  0  0  0  0  0
    3.8900    1.1675    1.8471 H   0  0  0  0  0  0  0  0  0  0  0  0
    5.0564    1.3768    0.5340 H   0  0  0  0  0  0  0  0  0  0  0  0
    1.7695    1.2938   -2.6247 H   0  0  0  0  0  0  0  0  0  0  0  0
    1.1044    2.9286   -2.6495 H   0  0  0  0  0  0  0  0  0  0  0  0
   -0.2461   -3.2223   -0.9209 H   0  0  0  0  0  0  0  0  0  0  0  0
   -0.2460   -3.2599    0.8687 H   0  0  0  0  0  0  0  0  0  0  0  0
   -1.7769   -3.3491   -0.0281 H   0  0  0  0  0  0  0  0  0  0  0  0
    5.9218   -2.8408   -0.1253 H   0  0  0  0  0  0  0  0  0  0  0  0
    4.8057   -2.6543    1.2257 H   0  0  0  0  0  0  0  0  0  0  0  0
    5.0327   -0.6914    2.7750 H   0  0  0  0  0  0  0  0  0  0  0  0
    6.2406    0.5484    2.4592 H   0  0  0  0  0  0  0  0  0  0  0  0
    3.0124    3.7262   -4.0024 H   0  0  0  0  0  0  0  0  0  0  0  0
    3.8074    2.1557   -3.8707 H   0  0  0  0  0  0  0  0  0  0  0  0
    7.0331   -1.7116    1.7803 H   0  0  0  0  0  0  0  0  0  0  0  0
    6.9476   -0.6276    0.3908 H   0  0  0  0  0  0  0  0  0  0  0  0
    1.9016    1.0708   -5.0671 H   0  0  0  0  0  0  0  0  0  0  0  0
    1.0832    2.6284   -5.1980 H   0  0  0  0  0  0  0  0  0  0  0  0
    3.8136    1.9614   -6.4225 H   0  0  0  0  0  0  0  0  0  0  0  0
    2.2739    2.0493   -7.2945 H   0  0  0  0  0  0  0  0  0  0  0  0
    2.9661    3.5138   -6.5761 H   0  0  0  0  0  0  0  0  0  0  0  0
  1  2  1  0  0  0  0
  1  3  1  0  0  0  0
  1  4  1  0  0  0  0
  2  5  2  0  0  0  0
  2  6  1  0  0  0  0
  3  7  1  0  0  0  0
  3  8  2  0  0  0  0
  4  9  1  0  0  0  0
  4 25  1  0  0  0  0
  4 26  1  0  0  0  0
  5 10  1  0  0  0  0
  5  8  1  0  0  0  0
  6 11  1  0  0  0  0
  6 12  2  0  0  0  0
  7 13  1  0  0  0  0
  7 14  1  0  0  0  0
  9 15  1  0  0  0  0
  9 27  1  0  0  0  0
  9 28  1  0  0  0  0
 10 16  1  0  0  0  0
 10 17  1  0  0  0  0
 11 16  1  0  0  0  0
 11 29  1  0  0  0  0
 13 18  1  0  0  0  0
 13 30  1  0  0  0  0
 13 31  1  0  0  0  0
 14 19  1  0  0  0  0
 14 32  1  0  0  0  0
 14 33  1  0  0  0  0
 15 20  1  0  0  0  0
 15 34  1  0  0  0  0
 15 35  1  0  0  0  0
 16 21  2  0  0  0  0
 17 36  1  0  0  0  0
 17 37  1  0  0  0  0
 17 38  1  0  0  0  0
 18 22  1  0  0  0  0
 18 39  1  0  0  0  0
 18 40  1  0  0  0  0
 19 22  1  0  0  0  0
 19 41  1  0  0  0  0
 19 42  1  0  0  0  0
 20 23  1  0  0  0  0
 20 43  1  0  0  0  0
 20 44  1  0  0  0  0
 22 45  1  0  0  0  0
 22 46  1  0  0  0  0
 23 24  1  0  0  0  0
 23 47  1  0  0  0  0
 23 48  1  0  0  0  0
 24 49  1  0  0  0  0
 24 50  1  0  0  0  0
 24 51  1  0  0  0  0
M  END
>  <Mol_ID>
8312

>  <Formula>
C17H27N5O2

>  <MolWeight>
333.42858

>  <Cat>
P2016

>  <Name>
CL-407669

>  <Synonyms>
N/A

>  <Target>
others

>  <Form>
free base

>  <CAS>
301195-27-7

>  <URL>
N/A

$$$$
