CL-423237
 OpenBabel08302521443D

 44 46  0  0  0  0  0  0  0  0999 V2000
   -0.1972   -1.1402    0.0035 N   0  0  0  0  0  0  0  0  0  0  0  0
   -0.4594   -2.5215   -0.0165 C   0  0  0  0  0  0  0  0  0  0  0  0
    1.0835   -0.5737    0.0784 C   0  0  0  0  0  0  0  0  0  0  0  0
   -1.1278   -0.1417   -0.3994 N   0  0  0  0  0  0  0  0  0  0  0  0
    0.0763   -3.3384    0.9875 C   0  0  0  0  0  0  0  0  0  0  0  0
   -1.2464   -3.0999   -1.0178 C   0  0  0  0  0  0  0  0  0  0  0  0
    0.8948    0.8734   -0.2067 C   0  0  0  0  0  0  0  0  0  0  0  0
    2.1616   -1.0815    0.3395 O   0  0  0  0  0  0  0  0  0  0  0  0
   -0.4286    1.0782   -0.3069 C   0  0  0  0  0  0  0  0  0  0  0  0
   -2.5216   -0.2770    0.0252 C   0  0  0  0  0  0  0  0  0  0  0  0
   -0.1989   -4.7076    1.0089 C   0  0  0  0  0  0  0  0  0  0  0  0
   -1.4892   -4.4759   -1.0176 C   0  0  0  0  0  0  0  0  0  0  0  0
    1.8064    1.9134    0.0973 N   0  0  0  0  0  0  0  0  0  0  0  0
   -1.1341    2.3875   -0.1343 C   0  0  0  0  0  0  0  0  0  0  0  0
   -0.9747   -5.2769    0.0013 C   0  0  0  0  0  0  0  0  0  0  0  0
    2.7856    2.3651   -1.2487 S   0  0  0  0  0  0  0  0  0  0  0  0
    3.4822    3.8994   -0.8161 C   0  0  0  0  0  0  0  0  0  0  0  0
    3.8562    1.3906   -1.3329 O   0  0  0  0  0  0  0  0  0  0  0  0
    1.8830    2.5535   -2.3681 O   0  0  0  0  0  0  0  0  0  0  0  0
    3.8679    4.8392   -1.7066 C   0  0  0  0  0  0  0  0  0  0  0  0
    3.7049    4.1613    0.6231 C   0  0  0  0  0  0  0  0  0  0  0  0
    4.3540    6.0493   -1.2360 N   0  0  0  0  0  0  0  0  0  0  0  0
    3.8511    4.7633   -3.2121 C   0  0  0  0  0  0  0  0  0  0  0  0
    4.0965    5.4241    0.9663 N   0  0  0  0  0  0  0  0  0  0  0  0
    3.5806    3.2974    1.4851 O   0  0  0  0  0  0  0  0  0  0  0  0
    4.4678    6.3879    0.0819 C   0  0  0  0  0  0  0  0  0  0  0  0
    4.8971    7.4758    0.4396 O   0  0  0  0  0  0  0  0  0  0  0  0
    0.6810   -2.9084    1.7832 H   0  0  0  0  0  0  0  0  0  0  0  0
   -1.6341   -2.4898   -1.8293 H   0  0  0  0  0  0  0  0  0  0  0  0
   -2.6776    0.1198    1.0338 H   0  0  0  0  0  0  0  0  0  0  0  0
   -3.1641    0.2748   -0.6706 H   0  0  0  0  0  0  0  0  0  0  0  0
   -2.8768   -1.3104    0.0203 H   0  0  0  0  0  0  0  0  0  0  0  0
    0.1967   -5.3279    1.8094 H   0  0  0  0  0  0  0  0  0  0  0  0
   -2.0713   -4.9241   -1.8184 H   0  0  0  0  0  0  0  0  0  0  0  0
    2.4829    1.5999    0.8119 H   0  0  0  0  0  0  0  0  0  0  0  0
   -1.6020    2.7105   -1.0664 H   0  0  0  0  0  0  0  0  0  0  0  0
   -1.9102    2.3081    0.6362 H   0  0  0  0  0  0  0  0  0  0  0  0
   -0.4591    3.1794    0.2075 H   0  0  0  0  0  0  0  0  0  0  0  0
   -1.1700   -6.3464    0.0051 H   0  0  0  0  0  0  0  0  0  0  0  0
    4.6382    6.7750   -1.8877 H   0  0  0  0  0  0  0  0  0  0  0  0
    3.1865    5.5342   -3.6193 H   0  0  0  0  0  0  0  0  0  0  0  0
    4.8580    4.9590   -3.6026 H   0  0  0  0  0  0  0  0  0  0  0  0
    3.5442    3.7995   -3.6175 H   0  0  0  0  0  0  0  0  0  0  0  0
    4.2512    5.6119    1.9434 H   0  0  0  0  0  0  0  0  0  0  0  0
  1  2  1  0  0  0  0
  1  3  1  0  0  0  0
  1  4  1  0  0  0  0
  2  5  2  0  0  0  0
  2  6  1  0  0  0  0
  3  7  1  0  0  0  0
  3  8  2  0  0  0  0
  4  9  1  0  0  0  0
  4 10  1  0  0  0  0
  5 11  1  0  0  0  0
  5 28  1  0  0  0  0
  6 12  2  0  0  0  0
  6 29  1  0  0  0  0
  7 13  1  0  0  0  0
  7  9  2  0  0  0  0
  9 14  1  0  0  0  0
 10 30  1  0  0  0  0
 10 31  1  0  0  0  0
 10 32  1  0  0  0  0
 11 15  2  0  0  0  0
 11 33  1  0  0  0  0
 12 15  1  0  0  0  0
 12 34  1  0  0  0  0
 13 16  1  0  0  0  0
 13 35  1  0  0  0  0
 14 36  1  0  0  0  0
 14 37  1  0  0  0  0
 14 38  1  0  0  0  0
 15 39  1  0  0  0  0
 16 17  1  0  0  0  0
 16 18  2  0  0  0  0
 16 19  2  0  0  0  0
 17 20  2  0  0  0  0
 17 21  1  0  0  0  0
 20 22  1  0  0  0  0
 20 23  1  0  0  0  0
 21 24  1  0  0  0  0
 21 25  2  0  0  0  0
 22 26  1  0  0  0  0
 22 40  1  0  0  0  0
 23 41  1  0  0  0  0
 23 42  1  0  0  0  0
 23 43  1  0  0  0  0
 24 26  1  0  0  0  0
 24 44  1  0  0  0  0
 26 27  2  0  0  0  0
M  END
>  <Mol_ID>
9141

>  <Formula>
C16H17N5O5S

>  <MolWeight>
391.40168

>  <Cat>
P2024

>  <Name>
CL-423237

>  <Synonyms>
N/A

>  <Target>
Others

>  <Form>
free base

>  <CAS>
91215-17-7

>  <URL>
N/A

$$$$
