CL-416300
 OpenBabel08302521433D

 37 40  0  0  0  0  0  0  0  0999 V2000
    1.0104   -0.2536   -0.4135 C   0  0  0  0  0  0  0  0  0  0  0  0
   -0.3642    0.0796   -0.3981 C   0  0  0  0  0  0  0  0  0  0  0  0
    1.2517   -0.8213    0.8268 C   0  0  0  0  0  0  0  0  0  0  0  0
    2.1847    0.0378   -1.2149 C   0  0  0  0  0  0  0  0  0  0  0  0
   -1.0496   -1.0122    0.1185 C   0  0  0  0  0  0  0  0  0  0  0  0
   -1.0561    1.3933   -0.5729 C   0  0  0  0  0  0  0  0  0  0  0  0
   -0.0373   -1.8821    1.1884 S   0  0  0  0  0  0  0  0  0  0  0  0
    2.3895   -0.6686    1.5419 N   0  0  0  0  0  0  0  0  0  0  0  0
    3.3494   -0.4116   -0.5892 N   0  0  0  0  0  0  0  0  0  0  0  0
    2.1496    0.5426   -2.3287 O   0  0  0  0  0  0  0  0  0  0  0  0
   -2.5192   -1.1990    0.0278 C   0  0  0  0  0  0  0  0  0  0  0  0
   -2.5939    1.2630   -0.6345 C   0  0  0  0  0  0  0  0  0  0  0  0
    3.4012   -0.3790    0.7942 C   0  0  0  0  0  0  0  0  0  0  0  0
    4.2716   -1.3538   -1.2261 C   0  0  0  0  0  0  0  0  0  0  0  0
   -3.1797    0.1596    0.2763 C   0  0  0  0  0  0  0  0  0  0  0  0
    4.7802   -0.1428    1.3359 C   0  0  0  0  0  0  0  0  0  0  0  0
    4.4390   -2.6982   -0.4435 C   0  0  0  0  0  0  0  0  0  0  0  0
    5.4359   -1.4648    1.6869 C   0  0  0  0  0  0  0  0  0  0  0  0
    4.7713   -2.6991    1.0718 C   0  0  0  0  0  0  0  0  0  0  0  0
   -0.6658    1.9792   -1.4081 H   0  0  0  0  0  0  0  0  0  0  0  0
   -0.8274    1.9681    0.3404 H   0  0  0  0  0  0  0  0  0  0  0  0
   -2.7787   -1.5555   -0.9777 H   0  0  0  0  0  0  0  0  0  0  0  0
   -2.8844   -1.9473    0.7394 H   0  0  0  0  0  0  0  0  0  0  0  0
   -2.8869    1.0583   -1.6696 H   0  0  0  0  0  0  0  0  0  0  0  0
   -3.0476    2.2230   -0.3570 H   0  0  0  0  0  0  0  0  0  0  0  0
    3.9020   -1.5957   -2.2318 H   0  0  0  0  0  0  0  0  0  0  0  0
    5.2498   -0.8778   -1.3420 H   0  0  0  0  0  0  0  0  0  0  0  0
   -4.2591    0.0776    0.1120 H   0  0  0  0  0  0  0  0  0  0  0  0
   -3.0347    0.4405    1.3283 H   0  0  0  0  0  0  0  0  0  0  0  0
    5.3895    0.3778    0.5839 H   0  0  0  0  0  0  0  0  0  0  0  0
    4.7191    0.5303    2.1956 H   0  0  0  0  0  0  0  0  0  0  0  0
    5.2108   -3.2914   -0.9488 H   0  0  0  0  0  0  0  0  0  0  0  0
    3.5089   -3.2741   -0.5544 H   0  0  0  0  0  0  0  0  0  0  0  0
    6.4982   -1.4303    1.4216 H   0  0  0  0  0  0  0  0  0  0  0  0
    5.4049   -1.5678    2.7799 H   0  0  0  0  0  0  0  0  0  0  0  0
    5.3925   -3.5736    1.3040 H   0  0  0  0  0  0  0  0  0  0  0  0
    3.8396   -2.8884    1.6261 H   0  0  0  0  0  0  0  0  0  0  0  0
  1  2  1  0  0  0  0
  1  3  2  0  0  0  0
  1  4  1  0  0  0  0
  2  5  2  0  0  0  0
  2  6  1  0  0  0  0
  3  7  1  0  0  0  0
  3  8  1  0  0  0  0
  4  9  1  0  0  0  0
  4 10  2  0  0  0  0
  5 11  1  0  0  0  0
  5  7  1  0  0  0  0
  6 12  1  0  0  0  0
  6 20  1  0  0  0  0
  6 21  1  0  0  0  0
  8 13  2  0  0  0  0
  9 14  1  0  0  0  0
  9 13  1  0  0  0  0
 11 15  1  0  0  0  0
 11 22  1  0  0  0  0
 11 23  1  0  0  0  0
 12 15  1  0  0  0  0
 12 24  1  0  0  0  0
 12 25  1  0  0  0  0
 13 16  1  0  0  0  0
 14 17  1  0  0  0  0
 14 26  1  0  0  0  0
 14 27  1  0  0  0  0
 15 28  1  0  0  0  0
 15 29  1  0  0  0  0
 16 18  1  0  0  0  0
 16 30  1  0  0  0  0
 16 31  1  0  0  0  0
 17 19  1  0  0  0  0
 17 32  1  0  0  0  0
 17 33  1  0  0  0  0
 18 19  1  0  0  0  0
 18 34  1  0  0  0  0
 18 35  1  0  0  0  0
 19 36  1  0  0  0  0
 19 37  1  0  0  0  0
M  END
>  <Mol_ID>
8849

>  <Formula>
C15H18N2OS

>  <MolWeight>
274.38122

>  <Cat>
P2021

>  <Name>
CL-416300

>  <Synonyms>
N/A

>  <Target>
17¦Â-HSD1

>  <Form>
free base

>  <CAS>
868269-48-1

>  <URL>
N/A

$$$$
