CL-418112
 OpenBabel08302521403D

 39 42  0  0  0  0  0  0  0  0999 V2000
   -1.7134   -0.7373    0.1678 N   0  0  0  0  0  0  0  0  0  0  0  0
   -0.9628    0.4157   -0.0352 C   0  0  0  0  0  0  0  0  0  0  0  0
   -3.0366   -0.3257    0.2098 C   0  0  0  0  0  0  0  0  0  0  0  0
   -1.0501   -2.0397    0.3576 C   0  0  0  0  0  0  0  0  0  0  0  0
    0.4984    0.4046   -0.0524 C   0  0  0  0  0  0  0  0  0  0  0  0
   -1.7715    1.4365   -0.1841 N   0  0  0  0  0  0  0  0  0  0  0  0
   -4.2722   -1.0833    0.4808 C   0  0  0  0  0  0  0  0  0  0  0  0
   -3.0546    0.9723   -0.0640 N   0  0  0  0  0  0  0  0  0  0  0  0
    0.3155   -2.0590   -0.4121 C   0  0  0  0  0  0  0  0  0  0  0  0
   -1.8149   -3.2425   -0.2370 C   0  0  0  0  0  0  0  0  0  0  0  0
   -0.7423   -2.2464    1.8602 C   0  0  0  0  0  0  0  0  0  0  0  0
    1.1518   -0.8306   -0.1864 C   0  0  0  0  0  0  0  0  0  0  0  0
    1.2589    1.5658    0.0940 C   0  0  0  0  0  0  0  0  0  0  0  0
   -5.4678   -0.6991   -0.1529 C   0  0  0  0  0  0  0  0  0  0  0  0
   -4.3498   -2.1265    1.4085 C   0  0  0  0  0  0  0  0  0  0  0  0
    2.5491   -0.9026   -0.1714 C   0  0  0  0  0  0  0  0  0  0  0  0
    2.6555    1.4903    0.1194 C   0  0  0  0  0  0  0  0  0  0  0  0
   -6.6605   -1.3760    0.1105 C   0  0  0  0  0  0  0  0  0  0  0  0
   -5.5275   -2.8483    1.6167 C   0  0  0  0  0  0  0  0  0  0  0  0
    3.2988    0.2585   -0.0083 C   0  0  0  0  0  0  0  0  0  0  0  0
   -6.6899   -2.4708    0.9633 C   0  0  0  0  0  0  0  0  0  0  0  0
   -7.8429   -0.9827   -0.4429 O   0  0  0  0  0  0  0  0  0  0  0  0
    0.1372   -2.1292   -1.4942 H   0  0  0  0  0  0  0  0  0  0  0  0
    0.8851   -2.9527   -0.1228 H   0  0  0  0  0  0  0  0  0  0  0  0
   -1.1611   -4.1214   -0.3083 H   0  0  0  0  0  0  0  0  0  0  0  0
   -2.6593   -3.5727    0.3622 H   0  0  0  0  0  0  0  0  0  0  0  0
   -2.1782   -3.0211   -1.2472 H   0  0  0  0  0  0  0  0  0  0  0  0
   -0.0488   -1.4862    2.2388 H   0  0  0  0  0  0  0  0  0  0  0  0
   -1.6244   -2.1669    2.4956 H   0  0  0  0  0  0  0  0  0  0  0  0
   -0.2904   -3.2266    2.0426 H   0  0  0  0  0  0  0  0  0  0  0  0
    0.7686    2.5306    0.2008 H   0  0  0  0  0  0  0  0  0  0  0  0
   -5.4626    0.1489   -0.8361 H   0  0  0  0  0  0  0  0  0  0  0  0
   -3.4960   -2.4164    1.9994 H   0  0  0  0  0  0  0  0  0  0  0  0
    3.0569   -1.8579   -0.2845 H   0  0  0  0  0  0  0  0  0  0  0  0
    3.2435    2.3959    0.2420 H   0  0  0  0  0  0  0  0  0  0  0  0
   -5.5326   -3.6906    2.3034 H   0  0  0  0  0  0  0  0  0  0  0  0
    4.3845    0.2050    0.0136 H   0  0  0  0  0  0  0  0  0  0  0  0
   -7.6187   -3.0057    1.1411 H   0  0  0  0  0  0  0  0  0  0  0  0
   -7.7243   -0.0919   -0.8132 H   0  0  0  0  0  0  0  0  0  0  0  0
  1  2  1  0  0  0  0
  1  3  1  0  0  0  0
  1  4  1  0  0  0  0
  2  5  1  0  0  0  0
  2  6  2  0  0  0  0
  3  7  1  0  0  0  0
  3  8  2  0  0  0  0
  4  9  1  0  0  0  0
  4 10  1  0  0  0  0
  4 11  1  0  0  0  0
  5 12  2  0  0  0  0
  5 13  1  0  0  0  0
  6  8  1  0  0  0  0
  7 14  2  0  0  0  0
  7 15  1  0  0  0  0
  9 12  1  0  0  0  0
  9 23  1  0  0  0  0
  9 24  1  0  0  0  0
 10 25  1  0  0  0  0
 10 26  1  0  0  0  0
 10 27  1  0  0  0  0
 11 28  1  0  0  0  0
 11 29  1  0  0  0  0
 11 30  1  0  0  0  0
 12 16  1  0  0  0  0
 13 17  2  0  0  0  0
 13 31  1  0  0  0  0
 14 18  1  0  0  0  0
 14 32  1  0  0  0  0
 15 19  2  0  0  0  0
 15 33  1  0  0  0  0
 16 20  2  0  0  0  0
 16 34  1  0  0  0  0
 17 20  1  0  0  0  0
 17 35  1  0  0  0  0
 18 21  2  0  0  0  0
 18 22  1  0  0  0  0
 19 21  1  0  0  0  0
 19 36  1  0  0  0  0
 20 37  1  0  0  0  0
 21 38  1  0  0  0  0
 22 39  1  0  0  0  0
M  END
>  <Mol_ID>
8345

>  <Formula>
C18H17N3O

>  <MolWeight>
291.34708

>  <Cat>
P2023

>  <Name>
CL-418112

>  <Synonyms>
N/A

>  <Target>
11¦ÂHSD1

>  <Form>
free base

>  <CAS>
330998-71-5

>  <URL>
N/A

$$$$
