CL-69954
 OpenBabel08302521423D

 24 24  0  0  0  0  0  0  0  0999 V2000
   -0.3048   -1.3440   -0.4928 C   0  0  0  0  0  0  0  0  0  0  0  0
   -1.3209   -0.9254   -1.1652 N   0  0  0  0  0  0  0  0  0  0  0  0
    1.1426   -0.3660   -0.5438 S   0  0  0  0  0  0  0  0  0  0  0  0
   -0.2330   -2.4471    0.2852 N   0  0  0  0  0  0  0  0  0  0  0  0
   -0.9672    0.2959   -1.9081 C   0  0  0  0  0  0  0  0  0  0  0  0
    0.1925    1.0034   -1.2287 C   0  0  0  0  0  0  0  0  0  0  0  0
   -1.2809   -3.4405    0.3830 C   0  0  0  0  0  0  0  0  0  0  0  0
   -1.2022   -4.4720   -0.7426 C   0  0  0  0  0  0  0  0  0  0  0  0
    0.0873   -5.2961   -0.7182 C   0  0  0  0  0  0  0  0  0  0  0  0
    0.0963   -6.3465   -1.8186 C   0  0  0  0  0  0  0  0  0  0  0  0
    0.6725   -2.6762    0.6772 H   0  0  0  0  0  0  0  0  0  0  0  0
   -1.8380    0.9604   -1.9483 H   0  0  0  0  0  0  0  0  0  0  0  0
   -0.7157    0.0289   -2.9432 H   0  0  0  0  0  0  0  0  0  0  0  0
    0.7775    1.6065   -1.9257 H   0  0  0  0  0  0  0  0  0  0  0  0
   -0.1623    1.6383   -0.4118 H   0  0  0  0  0  0  0  0  0  0  0  0
   -1.2034   -3.9404    1.3541 H   0  0  0  0  0  0  0  0  0  0  0  0
   -2.2631   -2.9527    0.3622 H   0  0  0  0  0  0  0  0  0  0  0  0
   -2.0597   -5.1493   -0.6442 H   0  0  0  0  0  0  0  0  0  0  0  0
   -1.3012   -3.9738   -1.7145 H   0  0  0  0  0  0  0  0  0  0  0  0
    0.9563   -4.6418   -0.8488 H   0  0  0  0  0  0  0  0  0  0  0  0
    0.1953   -5.7919    0.2535 H   0  0  0  0  0  0  0  0  0  0  0  0
   -0.0075   -5.8834   -2.8052 H   0  0  0  0  0  0  0  0  0  0  0  0
    1.0385   -6.9036   -1.8031 H   0  0  0  0  0  0  0  0  0  0  0  0
   -0.7221   -7.0615   -1.6868 H   0  0  0  0  0  0  0  0  0  0  0  0
  1  2  2  0  0  0  0
  1  3  1  0  0  0  0
  1  4  1  0  0  0  0
  2  5  1  0  0  0  0
  3  6  1  0  0  0  0
  4  7  1  0  0  0  0
  4 11  1  0  0  0  0
  5  6  1  0  0  0  0
  5 12  1  0  0  0  0
  5 13  1  0  0  0  0
  6 14  1  0  0  0  0
  6 15  1  0  0  0  0
  7  8  1  0  0  0  0
  7 16  1  0  0  0  0
  7 17  1  0  0  0  0
  8  9  1  0  0  0  0
  8 18  1  0  0  0  0
  8 19  1  0  0  0  0
  9 10  1  0  0  0  0
  9 20  1  0  0  0  0
  9 21  1  0  0  0  0
 10 22  1  0  0  0  0
 10 23  1  0  0  0  0
 10 24  1  0  0  0  0
M  END
>  <Mol_ID>
8559

>  <Formula>
C7H14N2S

>  <MolWeight>
158.26446

>  <Cat>
P2029

>  <Name>
CL-69954

>  <Synonyms>
N/A

>  <Target>
octopaminergic

>  <Form>
free base

>  <CAS>
853695-34-8

>  <URL>
N/A

$$$$
