Cladribine.cdx
 OpenBabel08302521493D

 31 33  0  0  0  0  0  0  0  0999 V2000
   -2.0398   -0.8396    0.0377 N   0  0  0  0  0  0  0  0  0  0  0  0
   -0.8627   -1.5017    0.0936 C   0  0  0  0  0  0  0  0  0  0  0  0
    0.3308   -0.7596    0.0361 C   0  0  0  0  0  0  0  0  0  0  0  0
    0.2048    0.6193   -0.0220 C   0  0  0  0  0  0  0  0  0  0  0  0
   -0.9392    1.3238   -0.0493 N   0  0  0  0  0  0  0  0  0  0  0  0
   -2.0118    0.5062   -0.0305 C   0  0  0  0  0  0  0  0  0  0  0  0
    1.6598   -1.1308    0.0182 N   0  0  0  0  0  0  0  0  0  0  0  0
    2.3236    0.0051   -0.0213 C   0  0  0  0  0  0  0  0  0  0  0  0
    1.4886    1.0930   -0.0386 N   0  0  0  0  0  0  0  0  0  0  0  0
   -0.8984   -2.8855    0.1930 N   0  0  0  0  0  0  0  0  0  0  0  0
    1.9224    2.4729   -0.0363 C   0  0  1  0  0  0  0  0  0  0  0  0
    1.5212    3.3019   -1.2436 C   0  0  0  0  0  0  0  0  0  0  0  0
    1.5100    4.6997   -0.6669 C   0  0  1  0  0  0  0  0  0  0  0  0
    1.0832    4.5020    0.7900 C   0  0  2  0  0  0  0  0  0  0  0  0
    1.4079    3.1352    1.1349 O   0  0  0  0  0  0  0  0  0  0  0  0
   -0.4065    4.7540    1.0426 C   0  0  0  0  0  0  0  0  0  0  0  0
   -1.2373    4.0229    0.1512 O   0  0  0  0  0  0  0  0  0  0  0  0
    2.8417    5.2256   -0.7461 O   0  0  0  0  0  0  0  0  0  0  0  0
   -2.9830    0.9965   -0.0742 H   0  0  0  0  0  0  0  0  0  0  0  0
    3.4025    0.0957   -0.0295 H   0  0  0  0  0  0  0  0  0  0  0  0
   -0.0465   -3.3386   -0.1153 H   0  0  0  0  0  0  0  0  0  0  0  0
   -1.7815   -3.2680   -0.1170 H   0  0  0  0  0  0  0  0  0  0  0  0
    3.0153    2.4732    0.0651 H   0  0  0  0  0  0  0  0  0  0  0  0
    0.5247    3.0347   -1.6077 H   0  0  0  0  0  0  0  0  0  0  0  0
    2.2284    3.1721   -2.0697 H   0  0  0  0  0  0  0  0  0  0  0  0
    0.8634    5.3852   -1.2220 H   0  0  0  0  0  0  0  0  0  0  0  0
    1.6599    5.1445    1.4652 H   0  0  0  0  0  0  0  0  0  0  0  0
   -0.6796    4.4727    2.0651 H   0  0  0  0  0  0  0  0  0  0  0  0
   -0.6358    5.8148    0.9032 H   0  0  0  0  0  0  0  0  0  0  0  0
   -1.0642    3.0687    0.3138 H   0  0  0  0  0  0  0  0  0  0  0  0
    3.3559    4.9316    0.0258 H   0  0  0  0  0  0  0  0  0  0  0  0
  1  2  2  0  0  0  0
  2  3  1  0  0  0  0
  2 10  1  0  0  0  0
  3  4  2  0  0  0  0
  3  7  1  0  0  0  0
  4  5  1  0  0  0  0
  5  6  2  0  0  0  0
  6  1  1  0  0  0  0
  6 19  1  0  0  0  0
  7  8  2  0  0  0  0
  8  9  1  0  0  0  0
  8 20  1  0  0  0  0
  9  4  1  0  0  0  0
 10 21  1  0  0  0  0
 10 22  1  0  0  0  0
 11 12  1  0  0  0  0
 11  9  1  0  0  0  0
 11 23  1  1  0  0  0
 12 13  1  0  0  0  0
 12 24  1  0  0  0  0
 12 25  1  0  0  0  0
 13 14  1  0  0  0  0
 13 18  1  0  0  0  0
 13 26  1  6  0  0  0
 14 15  1  0  0  0  0
 14 27  1  1  0  0  0
 14 16  1  0  0  0  0
 15 11  1  0  0  0  0
 16 17  1  0  0  0  0
 16 28  1  0  0  0  0
 16 29  1  0  0  0  0
 17 30  1  0  0  0  0
 18 31  1  0  0  0  0
M  END
>  <Mol_ID>
115

>  <Formula>
C10H12ClN5O3

>  <MolWeight>
285.68698

>  <Cat>
S1199

>  <Name>
Cladribine (RWJ 26251)

>  <Synonyms>
Leustatin,2-CdA,2-Chloro-2¡ä-deoxyadenosine,CldAdo,Jk 6251,NSC 105014,RWJ 26251

>  <Target>
Adenosine Deaminase,DNA/RNA Synthesis

>  <Form>
free base

>  <CAS>
4291-63-8

>  <URL>
http://selleckchem.com/products/Cladribine.html

$$$$
