Clavulanic acid
 OpenBabel08302521353D

 23 24  0  0  1  0  0  0  0  0999 V2000
    4.5672    1.3641    1.8822 C   0  0  0  0  0  0  0  0  0  0  0  0
    5.1377    2.2981    1.0734 O   0  0  0  0  0  0  0  0  0  0  0  0
    4.1387    1.6488    2.9915 O   0  0  0  0  0  0  0  0  0  0  0  0
    6.2664   -1.9775   -0.2052 O   0  0  0  0  0  0  0  0  0  0  0  0
    2.4216   -1.2232    1.9999 C   0  0  0  0  0  0  0  0  0  0  0  0
    1.0516   -1.7743    1.7943 C   0  0  0  0  0  0  0  0  0  0  0  0
    1.1322   -3.1897    1.8475 O   0  0  0  0  0  0  0  0  0  0  0  0
    5.0006   -0.0052   -0.1173 N   0  0  0  0  0  0  0  0  0  0  0  0
    4.5509   -0.0466    1.2710 C   0  0  2  0  0  0  0  0  0  0  0  0
    3.8060   -0.0167   -0.9899 C   0  0  2  0  0  0  0  0  0  0  0  0
    5.4793   -1.1806   -0.6483 C   0  0  0  0  0  0  0  0  0  0  0  0
    3.1264   -0.5367    1.0873 C   0  0  0  0  0  0  0  0  0  0  0  0
    2.6358   -0.3689   -0.2162 O   0  0  0  0  0  0  0  0  0  0  0  0
    4.4857   -1.1182   -1.8167 C   0  0  0  0  0  0  0  0  0  0  0  0
    5.4629    1.8789    0.2491 H   0  0  0  0  0  0  0  0  0  0  0  0
    2.8565   -1.4120    2.9800 H   0  0  0  0  0  0  0  0  0  0  0  0
    0.3905   -1.4361    2.5970 H   0  0  0  0  0  0  0  0  0  0  0  0
    0.6024   -1.4825    0.8402 H   0  0  0  0  0  0  0  0  0  0  0  0
    1.6239   -3.4707    1.0570 H   0  0  0  0  0  0  0  0  0  0  0  0
    5.1775   -0.7205    1.8636 H   0  0  0  0  0  0  0  0  0  0  0  0
    3.6711    0.9340   -1.5171 H   0  0  0  0  0  0  0  0  0  0  0  0
    3.8944   -2.0257   -1.9573 H   0  0  0  0  0  0  0  0  0  0  0  0
    4.9317   -0.7980   -2.7604 H   0  0  0  0  0  0  0  0  0  0  0  0
  1  2  1  0  0  0  0
  1  3  2  0  0  0  0
  2 15  1  0  0  0  0
  4 11  2  0  0  0  0
  5  6  1  0  0  0  0
  5 12  2  0  0  0  0
  5 16  1  0  0  0  0
  6  7  1  0  0  0  0
  6 17  1  0  0  0  0
  6 18  1  0  0  0  0
  7 19  1  0  0  0  0
  8  9  1  0  0  0  0
  8 10  1  0  0  0  0
  8 11  1  0  0  0  0
  9 12  1  0  0  0  0
  9 20  1  1  0  0  0
  9  1  1  0  0  0  0
 10 13  1  0  0  0  0
 10 14  1  0  0  0  0
 10 21  1  6  0  0  0
 11 14  1  0  0  0  0
 12 13  1  0  0  0  0
 14 22  1  0  0  0  0
 14 23  1  0  0  0  0
M  END
>  <Mol_ID>
7018

>  <Formula>
C8H9NO5

>  <MolWeight>
199.16076

>  <Cat>
E4472

>  <Name>
Clavulanic acid

>  <Target>
¦Â-lactamase

>  <Form>
free base

>  <CAS>
58001-44-8

>  <URL>
https://www.selleckchem.com/products/clavulanic-acid.html

$$$$
