Clofibric acid.cdx
 OpenBabel08302522053D

 25 25  0  0  0  0  0  0  0  0999 V2000
    1.4619    0.0692    1.3798 C   0  0  0  0  0  0  0  0  0  0  0  0
    0.8009   -1.1524    1.2828 C   0  0  0  0  0  0  0  0  0  0  0  0
   -0.4935   -1.2002    0.7685 C   0  0  0  0  0  0  0  0  0  0  0  0
   -1.1399   -0.0234    0.3788 C   0  0  0  0  0  0  0  0  0  0  0  0
   -0.5156    1.2087    0.5587 C   0  0  0  0  0  0  0  0  0  0  0  0
    0.8053    1.2441    1.0125 C   0  0  0  0  0  0  0  0  0  0  0  0
   -1.0715    2.4301    0.3247 O   0  0  0  0  0  0  0  0  0  0  0  0
   -2.4793    2.6591    0.5063 C   0  0  0  0  0  0  0  0  0  0  0  0
   -3.2929    2.3241   -0.7547 C   0  0  0  0  0  0  0  0  0  0  0  0
   -3.0662    2.0061    1.7735 C   0  0  0  0  0  0  0  0  0  0  0  0
   -2.5779    4.1846    0.7066 C   0  0  0  0  0  0  0  0  0  0  0  0
   -2.8724    1.8998   -1.8226 O   0  0  0  0  0  0  0  0  0  0  0  0
   -4.6168    2.5619   -0.6195 O   0  0  0  0  0  0  0  0  0  0  0  0
    2.4818    0.1112    1.7514 H   0  0  0  0  0  0  0  0  0  0  0  0
    1.2976   -2.0671    1.5952 H   0  0  0  0  0  0  0  0  0  0  0  0
   -1.0041   -2.1546    0.6723 H   0  0  0  0  0  0  0  0  0  0  0  0
   -2.1313   -0.1007   -0.0528 H   0  0  0  0  0  0  0  0  0  0  0  0
    1.3191    2.1981    1.0998 H   0  0  0  0  0  0  0  0  0  0  0  0
   -2.4489    2.2287    2.6512 H   0  0  0  0  0  0  0  0  0  0  0  0
   -4.0854    2.3520    1.9686 H   0  0  0  0  0  0  0  0  0  0  0  0
   -3.1313    0.9180    1.6955 H   0  0  0  0  0  0  0  0  0  0  0  0
   -1.9912    4.4993    1.5798 H   0  0  0  0  0  0  0  0  0  0  0  0
   -2.1711    4.7231   -0.1554 H   0  0  0  0  0  0  0  0  0  0  0  0
   -3.6116    4.5178    0.8571 H   0  0  0  0  0  0  0  0  0  0  0  0
   -4.9816    2.3642   -1.5088 H   0  0  0  0  0  0  0  0  0  0  0  0
  1  2  2  0  0  0  0
  1 14  1  0  0  0  0
  2  3  1  0  0  0  0
  2 15  1  0  0  0  0
  3  4  2  0  0  0  0
  3 16  1  0  0  0  0
  4  5  1  0  0  0  0
  4 17  1  0  0  0  0
  5  6  2  0  0  0  0
  5  7  1  0  0  0  0
  6  1  1  0  0  0  0
  6 18  1  0  0  0  0
  7  8  1  0  0  0  0
  8  9  1  0  0  0  0
  8 10  1  0  0  0  0
  8 11  1  0  0  0  0
  9 12  2  0  0  0  0
  9 13  1  0  0  0  0
 10 19  1  0  0  0  0
 10 20  1  0  0  0  0
 10 21  1  0  0  0  0
 11 22  1  0  0  0  0
 11 23  1  0  0  0  0
 11 24  1  0  0  0  0
 13 25  1  0  0  0  0
M  END
>  <Mol_ID>
1346

>  <Formula>
C10H11ClO3

>  <MolWeight>
214.64554

>  <Cat>
S4207

>  <Name>
Clofibric Acid

>  <Synonyms>
Chlorofibrinic acid

>  <Target>
PPAR

>  <Form>
free base

>  <CAS>
882-09-7

>  <URL>
http://selleckchem.com/products/clofibric-acid.html

$$$$
