Clopamide
 OpenBabel08302520393D

 42 43  0  0  0  0  0  0  0  0999 V2000
    1.0904    0.2777    0.3052 C   0  0  0  0  0  0  0  0  0  0  0  0
    0.3225    0.9732   -0.7667 C   0  0  0  0  0  0  0  0  0  0  0  0
   -1.0509    0.7218   -0.9007 C   0  0  0  0  0  0  0  0  0  0  0  0
   -1.7875    1.4249   -1.8625 C   0  0  0  0  0  0  0  0  0  0  0  0
   -1.1693    2.3634   -2.6946 C   0  0  0  0  0  0  0  0  0  0  0  0
    0.1921    2.6191   -2.5537 C   0  0  0  0  0  0  0  0  0  0  0  0
    0.9361    1.9317   -1.5896 C   0  0  0  0  0  0  0  0  0  0  0  0
    0.5150   -0.0463    1.3402 O   0  0  0  0  0  0  0  0  0  0  0  0
    2.4334    0.0408    0.0248 N   0  0  0  0  0  0  0  0  0  0  0  0
   -3.5307    1.1671   -2.0238 S   0  0  0  0  0  0  0  0  0  0  0  0
   -4.0668    2.1115   -2.9741 O   0  0  0  0  0  0  0  0  0  0  0  0
   -3.7786   -0.2538   -2.1215 O   0  0  0  0  0  0  0  0  0  0  0  0
   -4.1152    1.6596   -0.5315 N   0  0  0  0  0  0  0  0  0  0  0  0
    3.2777   -0.5829    0.9670 N   0  0  0  0  0  0  0  0  0  0  0  0
    4.4021    0.2583    1.4120 C   0  0  1  0  0  0  0  0  0  0  0  0
    5.2696   -0.4427    2.4733 C   0  0  0  0  0  0  0  0  0  0  0  0
    5.6701   -1.8525    2.0592 C   0  0  0  0  0  0  0  0  0  0  0  0
    4.4122   -2.6607    1.7692 C   0  0  0  0  0  0  0  0  0  0  0  0
    3.5237   -2.0080    0.6952 C   0  0  2  0  0  0  0  0  0  0  0  0
    4.0641   -2.3068   -0.7100 C   0  0  0  0  0  0  0  0  0  0  0  0
    5.2831    0.8123    0.2830 C   0  0  0  0  0  0  0  0  0  0  0  0
   -1.5414   -0.0034   -0.2528 H   0  0  0  0  0  0  0  0  0  0  0  0
   -1.7433    2.9142   -3.4374 H   0  0  0  0  0  0  0  0  0  0  0  0
    0.6682    3.3714   -3.1782 H   0  0  0  0  0  0  0  0  0  0  0  0
    1.9850    2.1879   -1.4642 H   0  0  0  0  0  0  0  0  0  0  0  0
    2.7689    0.1457   -0.9269 H   0  0  0  0  0  0  0  0  0  0  0  0
   -4.5380    2.5844   -0.6018 H   0  0  0  0  0  0  0  0  0  0  0  0
   -4.7465    0.9494   -0.1571 H   0  0  0  0  0  0  0  0  0  0  0  0
    3.9660    1.1348    1.9113 H   0  0  0  0  0  0  0  0  0  0  0  0
    6.1718    0.1455    2.6860 H   0  0  0  0  0  0  0  0  0  0  0  0
    4.7109   -0.4984    3.4166 H   0  0  0  0  0  0  0  0  0  0  0  0
    6.3246   -1.8273    1.1816 H   0  0  0  0  0  0  0  0  0  0  0  0
    6.2397   -2.3286    2.8648 H   0  0  0  0  0  0  0  0  0  0  0  0
    4.6916   -3.6786    1.4717 H   0  0  0  0  0  0  0  0  0  0  0  0
    3.8372   -2.7583    2.6996 H   0  0  0  0  0  0  0  0  0  0  0  0
    2.5516   -2.5163    0.7602 H   0  0  0  0  0  0  0  0  0  0  0  0
    4.1557   -3.3888   -0.8564 H   0  0  0  0  0  0  0  0  0  0  0  0
    3.3843   -1.9414   -1.4864 H   0  0  0  0  0  0  0  0  0  0  0  0
    5.0491   -1.8710   -0.8856 H   0  0  0  0  0  0  0  0  0  0  0  0
    4.6981    1.4026   -0.4292 H   0  0  0  0  0  0  0  0  0  0  0  0
    6.0472    1.4817    0.6959 H   0  0  0  0  0  0  0  0  0  0  0  0
    5.8067    0.0292   -0.2681 H   0  0  0  0  0  0  0  0  0  0  0  0
  1  2  1  0  0  0  0
  1  8  2  0  0  0  0
  1  9  1  0  0  0  0
  2  3  2  0  0  0  0
  2  7  1  0  0  0  0
  3  4  1  0  0  0  0
  3 22  1  0  0  0  0
  4  5  2  0  0  0  0
  4 10  1  0  0  0  0
  5  6  1  0  0  0  0
  5 23  1  0  0  0  0
  6  7  2  0  0  0  0
  6 24  1  0  0  0  0
  7 25  1  0  0  0  0
  9 14  1  0  0  0  0
  9 26  1  0  0  0  0
 10 11  2  0  0  0  0
 10 12  2  0  0  0  0
 10 13  1  0  0  0  0
 13 27  1  0  0  0  0
 13 28  1  0  0  0  0
 14 15  1  0  0  0  0
 14 19  1  0  0  0  0
 15 16  1  0  0  0  0
 15 21  1  0  0  0  0
 15 29  1  1  0  0  0
 16 17  1  0  0  0  0
 16 30  1  0  0  0  0
 16 31  1  0  0  0  0
 17 18  1  0  0  0  0
 17 32  1  0  0  0  0
 17 33  1  0  0  0  0
 18 19  1  0  0  0  0
 18 34  1  0  0  0  0
 18 35  1  0  0  0  0
 19 20  1  0  0  0  0
 19 36  1  1  0  0  0
 20 37  1  0  0  0  0
 20 38  1  0  0  0  0
 20 39  1  0  0  0  0
 21 40  1  0  0  0  0
 21 41  1  0  0  0  0
 21 42  1  0  0  0  0
M  END
>  <Mol_ID>
3697

>  <Formula>
C14H20ClN3O3S

>  <MolWeight>
345.8449

>  <Cat>
S4316

>  <Name>
Clopamide

>  <Synonyms>
N/A

>  <Target>
Others

>  <Form>
Free Base

>  <CAS>
636-54-4

>  <URL>
http://www.selleck.cn/products/clopamide.html

$$$$
