Clorsulon.cdx
 OpenBabel08302521443D

 28 28  0  0  0  0  0  0  0  0999 V2000
   -1.1590   -1.2046   -0.0036 C   0  0  0  0  0  0  0  0  0  0  0  0
   -1.8275    0.0333    0.0090 C   0  0  0  0  0  0  0  0  0  0  0  0
   -1.1056    1.2351   -0.0115 C   0  0  0  0  0  0  0  0  0  0  0  0
    0.2935    1.2176   -0.0458 C   0  0  0  0  0  0  0  0  0  0  0  0
    0.9983    0.0087   -0.0264 C   0  0  0  0  0  0  0  0  0  0  0  0
    0.2511   -1.1817   -0.0624 C   0  0  0  0  0  0  0  0  0  0  0  0
   -1.8550   -2.5078   -0.0290 C   0  0  0  0  0  0  0  0  0  0  0  0
   -1.3966   -3.6377    0.5290 C   0  0  0  0  0  0  0  0  0  0  0  0
   -3.5932    0.1078    0.0976 S   0  0  0  0  0  0  0  0  0  0  0  0
   -3.9553    1.7510    0.1515 N   0  0  0  0  0  0  0  0  0  0  0  0
   -4.1397   -0.3527   -1.1604 O   0  0  0  0  0  0  0  0  0  0  0  0
   -4.0184   -0.4074    1.3772 O   0  0  0  0  0  0  0  0  0  0  0  0
    2.3867   -0.0823   -0.2232 N   0  0  0  0  0  0  0  0  0  0  0  0
    1.1404    2.7739   -0.0257 S   0  0  0  0  0  0  0  0  0  0  0  0
    1.2469    3.1311   -1.6592 N   0  0  0  0  0  0  0  0  0  0  0  0
    0.2714    3.7757    0.5516 O   0  0  0  0  0  0  0  0  0  0  0  0
    2.4952    2.5814    0.4367 O   0  0  0  0  0  0  0  0  0  0  0  0
   -1.6195    2.1935   -0.0061 H   0  0  0  0  0  0  0  0  0  0  0  0
    0.7945   -2.1222   -0.1453 H   0  0  0  0  0  0  0  0  0  0  0  0
   -2.8162   -2.5492   -0.5372 H   0  0  0  0  0  0  0  0  0  0  0  0
   -1.9781   -4.5533    0.4613 H   0  0  0  0  0  0  0  0  0  0  0  0
   -0.4584   -3.6970    1.0702 H   0  0  0  0  0  0  0  0  0  0  0  0
   -4.6065    1.9824   -0.6008 H   0  0  0  0  0  0  0  0  0  0  0  0
   -4.2925    2.0032    1.0816 H   0  0  0  0  0  0  0  0  0  0  0  0
    2.8027   -0.9418    0.1242 H   0  0  0  0  0  0  0  0  0  0  0  0
    2.9034    0.7362    0.1189 H   0  0  0  0  0  0  0  0  0  0  0  0
    0.9754    4.1002   -1.8253 H   0  0  0  0  0  0  0  0  0  0  0  0
    2.1674    2.8842   -2.0204 H   0  0  0  0  0  0  0  0  0  0  0  0
  1  2  2  0  0  0  0
  1  7  1  0  0  0  0
  2  3  1  0  0  0  0
  2  9  1  0  0  0  0
  3  4  2  0  0  0  0
  3 18  1  0  0  0  0
  4  5  1  0  0  0  0
  4 14  1  0  0  0  0
  5  6  2  0  0  0  0
  5 13  1  0  0  0  0
  6  1  1  0  0  0  0
  6 19  1  0  0  0  0
  7  8  2  0  0  0  0
  7 20  1  0  0  0  0
  8 21  1  0  0  0  0
  8 22  1  0  0  0  0
  9 10  1  0  0  0  0
  9 11  2  0  0  0  0
  9 12  2  0  0  0  0
 10 23  1  0  0  0  0
 10 24  1  0  0  0  0
 13 25  1  0  0  0  0
 13 26  1  0  0  0  0
 14 15  1  0  0  0  0
 14 16  2  0  0  0  0
 14 17  2  0  0  0  0
 15 27  1  0  0  0  0
 15 28  1  0  0  0  0
M  END
>  <Mol_ID>
907

>  <Formula>
C8H8Cl3N3O4S2

>  <MolWeight>
380.65582

>  <Cat>
S2613

>  <Name>
Clorsulon

>  <Synonyms>
MK-401,L631529

>  <Target>
Anti-infection

>  <Form>
free base

>  <CAS>
60200-06-8

>  <URL>
http://selleckchem.com/products/clorsulon.html

$$$$
