Coelenterazine.cdx
 OpenBabel08302519593D

 53 57  0  0  0  0  0  0  0  0999 V2000
   -1.0008   -1.4287   -0.1353 C   0  0  0  0  0  0  0  0  0  0  0  0
   -2.1382   -0.7079   -0.0500 C   0  0  0  0  0  0  0  0  0  0  0  0
   -2.0810    0.6763   -0.0029 N   0  0  0  0  0  0  0  0  0  0  0  0
   -0.8515    1.3404   -0.0027 C   0  0  0  0  0  0  0  0  0  0  0  0
    0.2768    0.5953   -0.0837 C   0  0  0  0  0  0  0  0  0  0  0  0
    0.2196   -0.7865   -0.1522 N   0  0  0  0  0  0  0  0  0  0  0  0
   -3.4488   -1.3667    0.0132 C   0  0  0  0  0  0  0  0  0  0  0  0
   -3.9934   -1.7368    1.2512 C   0  0  0  0  0  0  0  0  0  0  0  0
   -5.2189   -2.4046    1.3100 C   0  0  0  0  0  0  0  0  0  0  0  0
   -5.8991   -2.7040    0.1332 C   0  0  0  0  0  0  0  0  0  0  0  0
   -5.3802   -2.3324   -1.1031 C   0  0  0  0  0  0  0  0  0  0  0  0
   -4.1538   -1.6629   -1.1624 C   0  0  0  0  0  0  0  0  0  0  0  0
   -7.0800   -3.3773    0.2373 O   0  0  0  0  0  0  0  0  0  0  0  0
   -0.8437    2.8560    0.0269 C   0  0  0  0  0  0  0  0  0  0  0  0
   -0.7851    3.4413    1.4217 C   0  0  0  0  0  0  0  0  0  0  0  0
    0.4570    3.6684    2.0336 C   0  0  0  0  0  0  0  0  0  0  0  0
    0.5299    4.1290    3.3489 C   0  0  0  0  0  0  0  0  0  0  0  0
   -0.6382    4.3887    4.0615 C   0  0  0  0  0  0  0  0  0  0  0  0
   -1.8784    4.2120    3.4499 C   0  0  0  0  0  0  0  0  0  0  0  0
   -1.9535    3.7369    2.1376 C   0  0  0  0  0  0  0  0  0  0  0  0
    1.5875    1.0444   -0.0856 N   0  0  0  0  0  0  0  0  0  0  0  0
    2.3127   -0.0443   -0.1291 C   0  0  0  0  0  0  0  0  0  0  0  0
    1.4768   -1.3146   -0.2112 C   0  0  0  0  0  0  0  0  0  0  0  0
    1.9025   -2.4390   -0.3244 O   0  0  0  0  0  0  0  0  0  0  0  0
    3.8059   -0.1160   -0.0725 C   0  0  0  0  0  0  0  0  0  0  0  0
    4.3544   -0.1854    1.3347 C   0  0  0  0  0  0  0  0  0  0  0  0
    5.1224   -1.2832    1.7487 C   0  0  0  0  0  0  0  0  0  0  0  0
    5.6449   -1.3389    3.0423 C   0  0  0  0  0  0  0  0  0  0  0  0
    5.4062   -0.2969    3.9305 C   0  0  0  0  0  0  0  0  0  0  0  0
    4.6643    0.8097    3.5387 C   0  0  0  0  0  0  0  0  0  0  0  0
    4.1385    0.8649    2.2428 C   0  0  0  0  0  0  0  0  0  0  0  0
    5.9272   -0.3986    5.1855 O   0  0  0  0  0  0  0  0  0  0  0  0
   -0.9828   -2.5124   -0.1767 H   0  0  0  0  0  0  0  0  0  0  0  0
   -2.9360    1.1978    0.1532 H   0  0  0  0  0  0  0  0  0  0  0  0
   -3.4628   -1.5173    2.1720 H   0  0  0  0  0  0  0  0  0  0  0  0
   -5.6374   -2.6996    2.2673 H   0  0  0  0  0  0  0  0  0  0  0  0
   -5.9094   -2.5550   -2.0241 H   0  0  0  0  0  0  0  0  0  0  0  0
   -3.7447   -1.3801   -2.1296 H   0  0  0  0  0  0  0  0  0  0  0  0
   -7.3858   -3.6093   -0.6541 H   0  0  0  0  0  0  0  0  0  0  0  0
   -0.0024    3.2459   -0.5621 H   0  0  0  0  0  0  0  0  0  0  0  0
   -1.7361    3.2370   -0.4879 H   0  0  0  0  0  0  0  0  0  0  0  0
    1.3772    3.4758    1.4856 H   0  0  0  0  0  0  0  0  0  0  0  0
    1.4984    4.2772    3.8185 H   0  0  0  0  0  0  0  0  0  0  0  0
   -0.5822    4.7294    5.0920 H   0  0  0  0  0  0  0  0  0  0  0  0
   -2.7885    4.4364    4.0004 H   0  0  0  0  0  0  0  0  0  0  0  0
   -2.9306    3.5973    1.6824 H   0  0  0  0  0  0  0  0  0  0  0  0
    4.1400   -0.9770   -0.6621 H   0  0  0  0  0  0  0  0  0  0  0  0
    4.2171    0.7759   -0.5636 H   0  0  0  0  0  0  0  0  0  0  0  0
    5.3289   -2.1054    1.0655 H   0  0  0  0  0  0  0  0  0  0  0  0
    6.2378   -2.1942    3.3591 H   0  0  0  0  0  0  0  0  0  0  0  0
    4.4866    1.6388    4.2183 H   0  0  0  0  0  0  0  0  0  0  0  0
    3.5629    1.7383    1.9439 H   0  0  0  0  0  0  0  0  0  0  0  0
    5.6272    0.3625    5.7088 H   0  0  0  0  0  0  0  0  0  0  0  0
  1  2  2  0  0  0  0
  1 33  1  0  0  0  0
  2  3  1  0  0  0  0
  2  7  1  0  0  0  0
  3  4  1  0  0  0  0
  3 34  1  0  0  0  0
  4  5  2  0  0  0  0
  4 14  1  0  0  0  0
  5  6  1  0  0  0  0
  5 21  1  0  0  0  0
  6  1  1  0  0  0  0
  7  8  2  0  0  0  0
  8  9  1  0  0  0  0
  8 35  1  0  0  0  0
  9 10  2  0  0  0  0
  9 36  1  0  0  0  0
 10 11  1  0  0  0  0
 10 13  1  0  0  0  0
 11 12  2  0  0  0  0
 11 37  1  0  0  0  0
 12  7  1  0  0  0  0
 12 38  1  0  0  0  0
 13 39  1  0  0  0  0
 14 15  1  0  0  0  0
 14 40  1  0  0  0  0
 14 41  1  0  0  0  0
 15 16  2  0  0  0  0
 16 17  1  0  0  0  0
 16 42  1  0  0  0  0
 17 18  2  0  0  0  0
 17 43  1  0  0  0  0
 18 19  1  0  0  0  0
 18 44  1  0  0  0  0
 19 20  2  0  0  0  0
 19 45  1  0  0  0  0
 20 15  1  0  0  0  0
 20 46  1  0  0  0  0
 21 22  2  0  0  0  0
 22 23  1  0  0  0  0
 22 25  1  0  0  0  0
 23  6  1  0  0  0  0
 23 24  2  0  0  0  0
 25 26  1  0  0  0  0
 25 47  1  0  0  0  0
 25 48  1  0  0  0  0
 26 27  2  0  0  0  0
 27 28  1  0  0  0  0
 27 49  1  0  0  0  0
 28 29  2  0  0  0  0
 28 50  1  0  0  0  0
 29 30  1  0  0  0  0
 29 32  1  0  0  0  0
 30 31  2  0  0  0  0
 30 51  1  0  0  0  0
 31 26  1  0  0  0  0
 31 52  1  0  0  0  0
 32 53  1  0  0  0  0
M  END
>  <Mol_ID>
2627

>  <Formula>
C26H21N3O3

>  <MolWeight>
423.46324

>  <Cat>
S7777

>  <Name>
Coelenterazine

>  <Synonyms>
N/A

>  <Target>
Dyes

>  <Form>
free base

>  <CAS>
55779-48-1

>  <URL>
http://selleckchem.com/products/coelenterazine.html

$$$$
