Colcemid
 OpenBabel08302521343D

 52 54  0  0  0  0  0  0  0  0999 V2000
   -0.6495    1.0782   -0.2580 C   0  0  0  0  0  0  0  0  0  0  0  0
   -0.7534    0.2973    0.8353 C   0  0  0  0  0  0  0  0  0  0  0  0
   -0.2841    1.3256    1.9537 C   0  0  0  0  0  0  0  0  0  0  0  0
   -0.1879    3.0056    1.4979 C   0  0  0  0  0  0  0  0  0  0  0  0
   -0.9821    3.8221    0.0554 C   0  0  1  0  0  0  0  0  0  0  0  0
   -2.2679    3.1968   -0.7333 C   0  0  0  0  0  0  0  0  0  0  0  0
   -3.3647    2.6249   -1.3808 C   0  0  0  0  0  0  0  0  0  0  0  0
   -4.3046    1.3705   -0.9900 C   0  0  0  0  0  0  0  0  0  0  0  0
   -4.9073    1.3926    0.4138 C   0  0  0  0  0  0  0  0  0  0  0  0
   -3.8726    0.9971    1.1950 C   0  0  0  0  0  0  0  0  0  0  0  0
   -2.7687    1.9741    1.1436 C   0  0  0  0  0  0  0  0  0  0  0  0
   -1.9342    1.9872    0.0250 C   0  0  0  0  0  0  0  0  0  0  0  0
   -0.3710   -1.0294    0.6667 C   0  0  0  0  0  0  0  0  0  0  0  0
    0.8405   -1.2840    0.0627 C   0  0  0  0  0  0  0  0  0  0  0  0
    1.5150   -0.1567   -0.3777 C   0  0  0  0  0  0  0  0  0  0  0  0
    0.7655    1.0638   -0.6274 C   0  0  0  0  0  0  0  0  0  0  0  0
   -4.5328    0.4186   -1.7300 O   0  0  0  0  0  0  0  0  0  0  0  0
   -0.7035    5.2732   -0.1017 N   0  0  0  0  0  0  0  0  0  0  0  0
   -1.0558    6.2545    0.9313 C   0  0  0  0  0  0  0  0  0  0  0  0
   -5.5896    2.5725    0.7305 O   0  0  0  0  0  0  0  0  0  0  0  0
   -6.6572    2.3581    1.6547 C   0  0  0  0  0  0  0  0  0  0  0  0
    1.4007   -2.5046   -0.1258 O   0  0  0  0  0  0  0  0  0  0  0  0
    0.7245   -3.6672    0.3197 C   0  0  0  0  0  0  0  0  0  0  0  0
    2.8941   -0.0862   -0.4954 O   0  0  0  0  0  0  0  0  0  0  0  0
    3.6990   -0.8620    0.3885 C   0  0  0  0  0  0  0  0  0  0  0  0
    1.7021    2.0154   -0.9361 O   0  0  0  0  0  0  0  0  0  0  0  0
    2.8749    2.1093   -1.7233 C   0  0  0  0  0  0  0  0  0  0  0  0
    0.7137    1.0199    2.2882 H   0  0  0  0  0  0  0  0  0  0  0  0
   -0.9707    1.2329    2.7999 H   0  0  0  0  0  0  0  0  0  0  0  0
    0.8948    3.1343    1.4047 H   0  0  0  0  0  0  0  0  0  0  0  0
   -0.4701    3.5897    2.3712 H   0  0  0  0  0  0  0  0  0  0  0  0
   -0.2860    3.4713   -0.7319 H   0  0  0  0  0  0  0  0  0  0  0  0
   -3.8798    3.1051   -2.2079 H   0  0  0  0  0  0  0  0  0  0  0  0
   -3.4611   -0.0014    1.0336 H   0  0  0  0  0  0  0  0  0  0  0  0
   -3.2267    2.9491    1.4067 H   0  0  0  0  0  0  0  0  0  0  0  0
   -1.1527   -1.7886    0.5932 H   0  0  0  0  0  0  0  0  0  0  0  0
    0.3174    5.3668   -0.1944 H   0  0  0  0  0  0  0  0  0  0  0  0
   -0.2623    6.4207    1.6774 H   0  0  0  0  0  0  0  0  0  0  0  0
   -1.1628    7.2368    0.4483 H   0  0  0  0  0  0  0  0  0  0  0  0
   -1.9907    6.0610    1.4581 H   0  0  0  0  0  0  0  0  0  0  0  0
   -7.2278    1.4471    1.4452 H   0  0  0  0  0  0  0  0  0  0  0  0
   -6.2824    2.3433    2.6840 H   0  0  0  0  0  0  0  0  0  0  0  0
   -7.3443    3.2077    1.5664 H   0  0  0  0  0  0  0  0  0  0  0  0
    0.4084   -3.5987    1.3637 H   0  0  0  0  0  0  0  0  0  0  0  0
   -0.1171   -3.8869   -0.3426 H   0  0  0  0  0  0  0  0  0  0  0  0
    1.4347   -4.4983    0.2454 H   0  0  0  0  0  0  0  0  0  0  0  0
    3.4102   -0.7671    1.4437 H   0  0  0  0  0  0  0  0  0  0  0  0
    3.6878   -1.9025    0.0557 H   0  0  0  0  0  0  0  0  0  0  0  0
    4.7359   -0.5138    0.3224 H   0  0  0  0  0  0  0  0  0  0  0  0
    3.6785    1.5225   -1.2851 H   0  0  0  0  0  0  0  0  0  0  0  0
    2.7181    1.8986   -2.7754 H   0  0  0  0  0  0  0  0  0  0  0  0
    3.2088    3.1532   -1.7534 H   0  0  0  0  0  0  0  0  0  0  0  0
  1  2  2  0  0  0  0
  1 12  1  0  0  0  0
  2  3  1  0  0  0  0
  3  4  1  0  0  0  0
  3 28  1  0  0  0  0
  3 29  1  0  0  0  0
  4  5  1  0  0  0  0
  4 30  1  0  0  0  0
  4 31  1  0  0  0  0
  5  6  1  0  0  0  0
  5 32  1  6  0  0  0
  5 18  1  0  0  0  0
  6  7  2  0  0  0  0
  6 12  1  0  0  0  0
  7  8  1  0  0  0  0
  7 33  1  0  0  0  0
  8  9  1  0  0  0  0
  8 17  2  0  0  0  0
  9 10  2  0  0  0  0
  9 20  1  0  0  0  0
 10 11  1  0  0  0  0
 10 34  1  0  0  0  0
 11 12  2  0  0  0  0
 11 35  1  0  0  0  0
 13 14  2  0  0  0  0
 13  2  1  0  0  0  0
 13 36  1  0  0  0  0
 14 15  1  0  0  0  0
 14 22  1  0  0  0  0
 15 16  2  0  0  0  0
 15 24  1  0  0  0  0
 16  1  1  0  0  0  0
 16 26  1  0  0  0  0
 18 19  1  0  0  0  0
 18 37  1  0  0  0  0
 19 38  1  0  0  0  0
 19 39  1  0  0  0  0
 19 40  1  0  0  0  0
 20 21  1  0  0  0  0
 21 41  1  0  0  0  0
 21 42  1  0  0  0  0
 21 43  1  0  0  0  0
 22 23  1  0  0  0  0
 23 44  1  0  0  0  0
 23 45  1  0  0  0  0
 23 46  1  0  0  0  0
 24 25  1  0  0  0  0
 25 47  1  0  0  0  0
 25 48  1  0  0  0  0
 25 49  1  0  0  0  0
 26 27  1  0  0  0  0
 27 50  1  0  0  0  0
 27 51  1  0  0  0  0
 27 52  1  0  0  0  0
M  END
>  <Mol_ID>
6473

>  <Formula>
C21H25NO5

>  <MolWeight>
371.4269

>  <Cat>
E2631

>  <Name>
Colcemid

>  <Synonyms>
Demecolcine

>  <Target>
Apoptosis related

>  <Form>
free base

>  <CAS>
477-30-5

>  <URL>
http://www.selleckchem.com/products/colcemid.html

$$$$
