Columbamine
 OpenBabel08302521453D

 45 48  0  0  0  0  0  0  0  0999 V2000
    1.0749    0.0797   -0.0250 O   0  0  0  0  0  0  0  0  0  0  0  0
    2.0209   -2.4580    1.1775 O   0  0  0  0  0  0  0  0  0  0  0  0
    2.2882   -1.4433    2.1421 C   0  0  0  0  0  0  0  0  0  0  0  0
   -6.8008   -3.6417   -4.9447 O   0  0  0  0  0  0  0  0  0  0  0  0
   -6.8273   -4.8463   -4.2153 C   0  0  0  0  0  0  0  0  0  0  0  0
   -7.0740   -1.4577   -6.7232 O   0  0  0  0  0  0  0  0  0  0  0  0
   -8.0535   -2.4699   -6.8975 C   0  0  0  0  0  0  0  0  0  0  0  0
   -2.5352   -2.3037   -2.2022 C   0  0  0  0  0  0  0  0  0  0  0  0
   -1.3937   -2.2795   -1.2699 C   0  0  0  0  0  0  0  0  0  0  0  0
   -3.3489   -3.3875   -2.1424 N   0  3  0  0  0  0  0  0  0  0  0  0
   -2.8078   -1.3211   -3.1564 C   0  0  0  0  0  0  0  0  0  0  0  0
   -0.9252   -3.4753   -0.6884 C   0  0  0  0  0  0  0  0  0  0  0  0
   -0.7082   -1.0988   -0.9510 C   0  0  0  0  0  0  0  0  0  0  0  0
   -4.4225   -3.5030   -2.9579 C   0  0  0  0  0  0  0  0  0  0  0  0
   -3.1249   -4.4579   -1.1319 C   0  0  0  0  0  0  0  0  0  0  0  0
   -3.9064   -1.4411   -4.0140 C   0  0  0  0  0  0  0  0  0  0  0  0
    0.2142   -3.4840    0.1316 C   0  0  0  0  0  0  0  0  0  0  0  0
   -1.6436   -4.7570   -0.9998 C   0  0  0  0  0  0  0  0  0  0  0  0
    0.4318   -1.1163   -0.1432 C   0  0  0  0  0  0  0  0  0  0  0  0
   -4.7639   -2.5657   -3.9443 C   0  0  0  0  0  0  0  0  0  0  0  0
   -4.1379   -0.4243   -4.9417 C   0  0  0  0  0  0  0  0  0  0  0  0
    0.8975   -2.3014    0.4181 C   0  0  0  0  0  0  0  0  0  0  0  0
   -5.8758   -2.6444   -4.8541 C   0  0  0  0  0  0  0  0  0  0  0  0
   -5.2194   -0.4996   -5.8042 C   0  0  0  0  0  0  0  0  0  0  0  0
   -6.0882   -1.5934   -5.7786 C   0  0  0  0  0  0  0  0  0  0  0  0
    2.0281   -0.1037   -0.1042 H   0  0  0  0  0  0  0  0  0  0  0  0
    2.8083   -0.6001    1.6817 H   0  0  0  0  0  0  0  0  0  0  0  0
    1.3831   -1.1156    2.6635 H   0  0  0  0  0  0  0  0  0  0  0  0
    2.9736   -1.8657    2.8837 H   0  0  0  0  0  0  0  0  0  0  0  0
   -5.9088   -5.4229   -4.3570 H   0  0  0  0  0  0  0  0  0  0  0  0
   -7.0480   -4.6540   -3.1614 H   0  0  0  0  0  0  0  0  0  0  0  0
   -7.6481   -5.4556   -4.6057 H   0  0  0  0  0  0  0  0  0  0  0  0
   -7.5969   -3.4157   -7.2066 H   0  0  0  0  0  0  0  0  0  0  0  0
   -8.6719   -2.5811   -6.0013 H   0  0  0  0  0  0  0  0  0  0  0  0
   -8.7173   -2.1541   -7.7079 H   0  0  0  0  0  0  0  0  0  0  0  0
   -2.1532   -0.4550   -3.2499 H   0  0  0  0  0  0  0  0  0  0  0  0
   -1.0169   -0.1350   -1.3489 H   0  0  0  0  0  0  0  0  0  0  0  0
   -5.0053   -4.3861   -2.7683 H   0  0  0  0  0  0  0  0  0  0  0  0
   -3.6549   -5.3630   -1.4470 H   0  0  0  0  0  0  0  0  0  0  0  0
   -3.5695   -4.0913   -0.1990 H   0  0  0  0  0  0  0  0  0  0  0  0
    0.5819   -4.4180    0.5558 H   0  0  0  0  0  0  0  0  0  0  0  0
   -1.2458   -5.1733   -1.9323 H   0  0  0  0  0  0  0  0  0  0  0  0
   -1.4960   -5.4946   -0.2036 H   0  0  0  0  0  0  0  0  0  0  0  0
   -3.4975    0.4534   -5.0008 H   0  0  0  0  0  0  0  0  0  0  0  0
   -5.3969    0.3071   -6.5162 H   0  0  0  0  0  0  0  0  0  0  0  0
  1 19  1  0  0  0  0
  1 26  1  0  0  0  0
  2  3  1  0  0  0  0
  2 22  1  0  0  0  0
  3 27  1  0  0  0  0
  3 28  1  0  0  0  0
  3 29  1  0  0  0  0
  4  5  1  0  0  0  0
  4 23  1  0  0  0  0
  5 30  1  0  0  0  0
  5 31  1  0  0  0  0
  5 32  1  0  0  0  0
  6  7  1  0  0  0  0
  6 25  1  0  0  0  0
  7 33  1  0  0  0  0
  7 34  1  0  0  0  0
  7 35  1  0  0  0  0
  8  9  1  0  0  0  0
  8 10  1  0  0  0  0
  8 11  2  0  0  0  0
  9 12  2  0  0  0  0
  9 13  1  0  0  0  0
 10 14  2  0  0  0  0
 10 15  1  0  0  0  0
 11 16  1  0  0  0  0
 11 36  1  0  0  0  0
 12 17  1  0  0  0  0
 12 18  1  0  0  0  0
 13 19  2  0  0  0  0
 13 37  1  0  0  0  0
 14 20  1  0  0  0  0
 14 38  1  0  0  0  0
 15 18  1  0  0  0  0
 15 39  1  0  0  0  0
 15 40  1  0  0  0  0
 16 20  2  0  0  0  0
 16 21  1  0  0  0  0
 17 22  2  0  0  0  0
 17 41  1  0  0  0  0
 18 42  1  0  0  0  0
 18 43  1  0  0  0  0
 19 22  1  0  0  0  0
 20 23  1  0  0  0  0
 21 24  2  0  0  0  0
 21 44  1  0  0  0  0
 23 25  2  0  0  0  0
 24 25  1  0  0  0  0
 24 45  1  0  0  0  0
M  CHG  1  10   1
M  END
>  <Mol_ID>
9561

>  <Formula>
C20H20NO4+

>  <MolWeight>
338.3771

>  <Cat>
E0223

>  <Name>
Columbamine

>  <Synonyms>
NA

>  <Target>
Wnt/¦Â-catenin

>  <Form>
Free Base

>  <CAS>
3621-36-1

>  <URL>
https://www.selleckchem.com/products/columbamine.html

$$$$
