Compound 11
 OpenBabel08302521323D

 28 30  0  0  0  0  0  0  0  0999 V2000
    1.3722   -0.0332    0.2124 O   0  0  0  0  0  0  0  0  0  0  0  0
   -3.1710    2.6663   -3.2768 O   0  0  0  0  0  0  0  0  0  0  0  0
   -1.4654    0.0365   -0.1336 N   0  0  0  0  0  0  0  0  0  0  0  0
   -2.3604    2.0852   -2.3248 N   0  0  0  0  0  0  0  0  0  0  0  0
   -4.3474    1.9650   -3.4516 N   0  0  0  0  0  0  0  0  0  0  0  0
   -6.4267   -0.2507   -3.1249 N   0  0  0  0  0  0  0  0  0  0  0  0
   -0.7164    1.2588    0.1987 C   0  0  0  0  0  0  0  0  0  0  0  0
   -0.7935   -1.2091    0.2662 C   0  0  0  0  0  0  0  0  0  0  0  0
   -2.6260    0.0436   -0.8857 C   0  0  0  0  0  0  0  0  0  0  0  0
    0.7330    1.1521   -0.2960 C   0  0  0  0  0  0  0  0  0  0  0  0
    0.6642   -1.2022   -0.2269 C   0  0  0  0  0  0  0  0  0  0  0  0
   -3.0185    1.0044   -1.8686 C   0  0  0  0  0  0  0  0  0  0  0  0
   -3.6117   -0.9706   -0.7343 C   0  0  0  0  0  0  0  0  0  0  0  0
   -4.2800    0.9261   -2.6057 C   0  0  0  0  0  0  0  0  0  0  0  0
   -5.2324   -0.1019   -2.4067 C   0  0  0  0  0  0  0  0  0  0  0  0
   -4.8372   -1.0485   -1.4523 C   0  0  0  0  0  0  0  0  0  0  0  0
   -6.5934    0.5401   -3.7471 H   0  0  0  0  0  0  0  0  0  0  0  0
   -7.2312   -0.4535   -2.5394 H   0  0  0  0  0  0  0  0  0  0  0  0
   -0.7065    1.3438    1.2927 H   0  0  0  0  0  0  0  0  0  0  0  0
   -1.1789    2.1765   -0.1722 H   0  0  0  0  0  0  0  0  0  0  0  0
   -0.8110   -1.2695    1.3607 H   0  0  0  0  0  0  0  0  0  0  0  0
   -1.2817   -2.1056   -0.1292 H   0  0  0  0  0  0  0  0  0  0  0  0
    0.7822    1.1426   -1.3910 H   0  0  0  0  0  0  0  0  0  0  0  0
    1.3098    2.0117    0.0597 H   0  0  0  0  0  0  0  0  0  0  0  0
    1.1914   -2.0767    0.1687 H   0  0  0  0  0  0  0  0  0  0  0  0
    0.7072   -1.2545   -1.3210 H   0  0  0  0  0  0  0  0  0  0  0  0
   -3.4478   -1.7498    0.0115 H   0  0  0  0  0  0  0  0  0  0  0  0
   -5.4957   -1.8913   -1.2441 H   0  0  0  0  0  0  0  0  0  0  0  0
  1 10  1  0  0  0  0
  1 11  1  0  0  0  0
  2  4  1  0  0  0  0
  2  5  1  0  0  0  0
  3  7  1  0  0  0  0
  3  8  1  0  0  0  0
  3  9  1  0  0  0  0
  4 12  2  0  0  0  0
  5 14  2  0  0  0  0
  6 15  1  0  0  0  0
  6 17  1  0  0  0  0
  6 18  1  0  0  0  0
  7 10  1  0  0  0  0
  7 19  1  0  0  0  0
  7 20  1  0  0  0  0
  8 11  1  0  0  0  0
  8 21  1  0  0  0  0
  8 22  1  0  0  0  0
  9 12  1  0  0  0  0
  9 13  2  0  0  0  0
 10 23  1  0  0  0  0
 10 24  1  0  0  0  0
 11 25  1  0  0  0  0
 11 26  1  0  0  0  0
 12 14  1  0  0  0  0
 13 16  1  0  0  0  0
 13 27  1  0  0  0  0
 14 15  1  0  0  0  0
 15 16  2  0  0  0  0
 16 28  1  0  0  0  0
M  END
>  <Mol_ID>
6257

>  <Formula>
C10H12N4O2

>  <MolWeight>
220.22788

>  <Cat>
E0363

>  <Name>
Compound 11

>  <Target>
Secretase

>  <Form>
free base

>  <CAS>
842964-18-5

>  <URL>
http://www.selleckchem.com/products/compound-11.html

$$$$
