Compound W
 OpenBabel08302521323D

 41 43  0  0  0  0  0  0  0  0999 V2000
    1.0351   -0.1377    0.0714 C   0  0  0  0  0  0  0  0  0  0  0  0
    0.2379    0.6599    1.0343 C   0  0  0  0  0  0  0  0  0  0  0  0
    0.7838    1.8608    1.5059 C   0  0  0  0  0  0  0  0  0  0  0  0
    0.0344    2.6815    2.3515 C   0  0  0  0  0  0  0  0  0  0  0  0
   -1.2055    2.2424    2.8207 C   0  0  0  0  0  0  0  0  0  0  0  0
   -1.7543    1.0505    2.3496 C   0  0  0  0  0  0  0  0  0  0  0  0
   -1.0221    0.2458    1.4747 C   0  0  0  0  0  0  0  0  0  0  0  0
    2.2548   -0.1044    0.0420 O   0  0  0  0  0  0  0  0  0  0  0  0
    0.2971   -0.8415   -0.8082 O   0  0  0  0  0  0  0  0  0  0  0  0
   -2.9759    0.5454    2.7256 O   0  0  0  0  0  0  0  0  0  0  0  0
   -4.0303    1.3817    3.0069 C   0  0  0  0  0  0  0  0  0  0  0  0
   -4.2247    2.6501    2.4499 C   0  0  0  0  0  0  0  0  0  0  0  0
   -5.3220    3.4260    2.8341 C   0  0  0  0  0  0  0  0  0  0  0  0
   -6.2580    2.9019    3.7346 C   0  0  0  0  0  0  0  0  0  0  0  0
   -6.1082    1.6056    4.2416 C   0  0  0  0  0  0  0  0  0  0  0  0
   -4.9914    0.8515    3.8740 C   0  0  0  0  0  0  0  0  0  0  0  0
   -7.4061    3.7182    4.1472 N   0  3  0  0  0  0  0  0  0  0  0  0
   -7.4809    4.8722    3.7016 O   0  0  0  0  0  0  0  0  0  0  0  0
   -8.2288    3.2065    4.9194 O   0  5  0  0  0  0  0  0  0  0  0  0
    0.4421    3.9130    2.8110 O   0  0  0  0  0  0  0  0  0  0  0  0
    1.1926    4.7439    2.0083 C   0  0  0  0  0  0  0  0  0  0  0  0
    1.1581    4.7561    0.6093 C   0  0  0  0  0  0  0  0  0  0  0  0
    2.0319    5.5767   -0.1088 C   0  0  0  0  0  0  0  0  0  0  0  0
    2.8947    6.4382    0.5810 C   0  0  0  0  0  0  0  0  0  0  0  0
    2.8608    6.5055    1.9793 C   0  0  0  0  0  0  0  0  0  0  0  0
    2.0068    5.6555    2.6872 C   0  0  0  0  0  0  0  0  0  0  0  0
    3.8486    7.2631   -0.1684 N   0  3  0  0  0  0  0  0  0  0  0  0
    3.8844    7.1288   -1.3994 O   0  0  0  0  0  0  0  0  0  0  0  0
    4.5665    8.0422    0.4758 O   0  5  0  0  0  0  0  0  0  0  0  0
    1.7852    2.1495    1.1926 H   0  0  0  0  0  0  0  0  0  0  0  0
   -1.7314    2.8529    3.5521 H   0  0  0  0  0  0  0  0  0  0  0  0
   -1.4389   -0.7120    1.1740 H   0  0  0  0  0  0  0  0  0  0  0  0
   -0.6603   -0.6590   -0.8125 H   0  0  0  0  0  0  0  0  0  0  0  0
   -3.5287    3.0617    1.7238 H   0  0  0  0  0  0  0  0  0  0  0  0
   -5.4306    4.4285    2.4239 H   0  0  0  0  0  0  0  0  0  0  0  0
   -6.8397    1.1731    4.9211 H   0  0  0  0  0  0  0  0  0  0  0  0
   -4.8673   -0.1554    4.2689 H   0  0  0  0  0  0  0  0  0  0  0  0
    0.4793    4.1141    0.0548 H   0  0  0  0  0  0  0  0  0  0  0  0
    2.0354    5.5235   -1.1957 H   0  0  0  0  0  0  0  0  0  0  0  0
    3.4993    7.1941    2.5295 H   0  0  0  0  0  0  0  0  0  0  0  0
    1.9889    5.6926    3.7747 H   0  0  0  0  0  0  0  0  0  0  0  0
  1  2  1  0  0  0  0
  1  8  2  0  0  0  0
  1  9  1  0  0  0  0
  2  3  2  0  0  0  0
  2  7  1  0  0  0  0
  3  4  1  0  0  0  0
  3 30  1  0  0  0  0
  4  5  2  0  0  0  0
  4 20  1  0  0  0  0
  5  6  1  0  0  0  0
  5 31  1  0  0  0  0
  6  7  2  0  0  0  0
  6 10  1  0  0  0  0
  7 32  1  0  0  0  0
  9 33  1  0  0  0  0
 10 11  1  0  0  0  0
 11 12  2  0  0  0  0
 11 16  1  0  0  0  0
 12 13  1  0  0  0  0
 12 34  1  0  0  0  0
 13 14  2  0  0  0  0
 13 35  1  0  0  0  0
 14 15  1  0  0  0  0
 14 17  1  0  0  0  0
 15 16  2  0  0  0  0
 15 36  1  0  0  0  0
 16 37  1  0  0  0  0
 17 18  2  0  0  0  0
 17 19  1  0  0  0  0
 20 21  1  0  0  0  0
 21 22  2  0  0  0  0
 21 26  1  0  0  0  0
 22 23  1  0  0  0  0
 22 38  1  0  0  0  0
 23 24  2  0  0  0  0
 23 39  1  0  0  0  0
 24 25  1  0  0  0  0
 24 27  1  0  0  0  0
 25 26  2  0  0  0  0
 25 40  1  0  0  0  0
 26 41  1  0  0  0  0
 27 28  2  0  0  0  0
 27 29  1  0  0  0  0
M  CHG  4  17   1  19  -1  27   1  29  -1
M  END
>  <Mol_ID>
6115

>  <Formula>
C19H12N2O8

>  <MolWeight>
396.30718

>  <Cat>
E0079

>  <Name>
Compound W

>  <Synonyms>
3,5-Bis(4-nitrophenoxy)benzoic acid

>  <Target>
Secretase

>  <Form>
free base

>  <CAS>
173550-33-9

>  <URL>
http://www.selleckchem.com/products/compound-w.html

$$$$
