Coniferyl alcohol
 OpenBabel08302520403D

 25 25  0  0  0  0  0  0  0  0999 V2000
    1.2449   -0.1704    0.0084 C   0  0  0  0  0  0  0  0  0  0  0  0
    0.7370   -1.0833   -1.0582 C   0  0  0  0  0  0  0  0  0  0  0  0
   -0.2180   -2.0067   -0.8570 C   0  0  0  0  0  0  0  0  0  0  0  0
   -0.7111   -2.9567   -1.8696 C   0  0  0  0  0  0  0  0  0  0  0  0
    0.1040   -3.4386   -2.9096 C   0  0  0  0  0  0  0  0  0  0  0  0
   -0.3761   -4.3976   -3.8059 C   0  0  0  0  0  0  0  0  0  0  0  0
    0.3226   -4.9510   -4.8495 O   0  0  0  0  0  0  0  0  0  0  0  0
    1.6613   -4.5014   -5.0268 C   0  0  0  0  0  0  0  0  0  0  0  0
   -1.6815   -4.8733   -3.6505 C   0  0  0  0  0  0  0  0  0  0  0  0
   -2.1780   -5.8205   -4.5032 O   0  0  0  0  0  0  0  0  0  0  0  0
   -2.5028   -4.4157   -2.6299 C   0  0  0  0  0  0  0  0  0  0  0  0
   -2.0134   -3.4612   -1.7373 C   0  0  0  0  0  0  0  0  0  0  0  0
    1.0507    1.1686   -0.4140 O   0  0  0  0  0  0  0  0  0  0  0  0
    2.3162   -0.3325    0.1600 H   0  0  0  0  0  0  0  0  0  0  0  0
    0.7370   -0.3143    0.9675 H   0  0  0  0  0  0  0  0  0  0  0  0
    1.2038   -0.9618   -2.0306 H   0  0  0  0  0  0  0  0  0  0  0  0
   -0.6819   -2.0926    0.1233 H   0  0  0  0  0  0  0  0  0  0  0  0
    1.1197   -3.0691   -2.9920 H   0  0  0  0  0  0  0  0  0  0  0  0
    1.6885   -3.4334   -5.2672 H   0  0  0  0  0  0  0  0  0  0  0  0
    2.2746   -4.7260   -4.1469 H   0  0  0  0  0  0  0  0  0  0  0  0
    2.0880   -5.0457   -5.8752 H   0  0  0  0  0  0  0  0  0  0  0  0
   -1.4476   -6.0074   -5.1242 H   0  0  0  0  0  0  0  0  0  0  0  0
   -3.5107   -4.8047   -2.5259 H   0  0  0  0  0  0  0  0  0  0  0  0
   -2.6624   -3.1167   -0.9345 H   0  0  0  0  0  0  0  0  0  0  0  0
    0.0948    1.2811   -0.5552 H   0  0  0  0  0  0  0  0  0  0  0  0
  1  2  1  0  0  0  0
  1 13  1  0  0  0  0
  1 14  1  0  0  0  0
  1 15  1  0  0  0  0
  2  3  2  0  0  0  0
  2 16  1  0  0  0  0
  3  4  1  0  0  0  0
  3 17  1  0  0  0  0
  4  5  2  0  0  0  0
  4 12  1  0  0  0  0
  5  6  1  0  0  0  0
  5 18  1  0  0  0  0
  6  7  1  0  0  0  0
  6  9  2  0  0  0  0
  7  8  1  0  0  0  0
  8 19  1  0  0  0  0
  8 20  1  0  0  0  0
  8 21  1  0  0  0  0
  9 10  1  0  0  0  0
  9 11  1  0  0  0  0
 10 22  1  0  0  0  0
 11 12  2  0  0  0  0
 11 23  1  0  0  0  0
 12 24  1  0  0  0  0
 13 25  1  0  0  0  0
M  END
>  <Mol_ID>
3748

>  <Formula>
C10H12O3

>  <MolWeight>
180.20048

>  <Cat>
S6429

>  <Name>
Coniferyl alcohol

>  <Synonyms>
N/A

>  <Target>
Others

>  <Form>
Free Base

>  <CAS>
458-35-5

>  <URL>
http://www.selleck.cn/products/coniferyl-alcohol.html

$$$$
