Coptisine Sulfate
 OpenBabel08302521463D

 38 43  0  0  0  0  0  0  0  0999 V2000
    0.5564    0.1646   -0.0512 C   0  0  0  0  0  0  0  0  0  0  0  0
   -0.9193    0.1493   -0.0559 C   0  0  0  0  0  0  0  0  0  0  0  0
    1.1620    1.3583    0.2188 N   0  3  0  0  0  0  0  0  0  0  0  0
    1.3462   -0.9618   -0.3062 C   0  0  0  0  0  0  0  0  0  0  0  0
   -1.6369    1.3516   -0.3033 C   0  0  0  0  0  0  0  0  0  0  0  0
   -1.6553   -1.0240    0.2048 C   0  0  0  0  0  0  0  0  0  0  0  0
    2.5168    1.4439    0.3246 C   0  0  0  0  0  0  0  0  0  0  0  0
    0.3431    2.5775    0.4671 C   0  0  0  0  0  0  0  0  0  0  0  0
    2.7338   -0.9019   -0.2130 C   0  0  0  0  0  0  0  0  0  0  0  0
   -3.0404    1.3708   -0.3571 C   0  0  0  0  0  0  0  0  0  0  0  0
   -0.8418    2.6158   -0.4908 C   0  0  0  0  0  0  0  0  0  0  0  0
   -3.0342   -0.9625    0.1956 C   0  0  0  0  0  0  0  0  0  0  0  0
    3.3340    0.3236    0.1324 C   0  0  0  0  0  0  0  0  0  0  0  0
    3.5293   -2.0481   -0.4313 C   0  0  0  0  0  0  0  0  0  0  0  0
   -3.7078    0.1975   -0.0867 C   0  0  0  0  0  0  0  0  0  0  0  0
   -3.8718   -1.9959    0.4719 O   0  0  0  0  0  0  0  0  0  0  0  0
    4.7216    0.3273    0.2796 C   0  0  0  0  0  0  0  0  0  0  0  0
    4.9159   -2.0058   -0.2808 C   0  0  0  0  0  0  0  0  0  0  0  0
   -5.0557    0.0388   -0.0332 O   0  0  0  0  0  0  0  0  0  0  0  0
   -5.1536   -1.3307    0.4166 C   0  0  0  0  0  0  0  0  0  0  0  0
    5.4796   -0.8047    0.0863 C   0  0  0  0  0  0  0  0  0  0  0  0
    5.4935    1.3918    0.6466 O   0  0  0  0  0  0  0  0  0  0  0  0
    6.8024   -0.6003    0.3097 O   0  0  0  0  0  0  0  0  0  0  0  0
    6.7947    0.7611    0.7736 C   0  0  0  0  0  0  0  0  0  0  0  0
    0.8737   -1.9091   -0.5731 H   0  0  0  0  0  0  0  0  0  0  0  0
   -1.1845   -1.9731    0.4434 H   0  0  0  0  0  0  0  0  0  0  0  0
    2.9348    2.4134    0.5825 H   0  0  0  0  0  0  0  0  0  0  0  0
    0.9717    3.4631    0.3288 H   0  0  0  0  0  0  0  0  0  0  0  0
    0.0279    2.5218    1.5167 H   0  0  0  0  0  0  0  0  0  0  0  0
   -3.6015    2.2761   -0.5699 H   0  0  0  0  0  0  0  0  0  0  0  0
   -0.5031    2.6759   -1.5315 H   0  0  0  0  0  0  0  0  0  0  0  0
   -1.4566    3.4968   -0.2772 H   0  0  0  0  0  0  0  0  0  0  0  0
    3.0707   -2.9979   -0.7074 H   0  0  0  0  0  0  0  0  0  0  0  0
    5.5278   -2.8895   -0.4308 H   0  0  0  0  0  0  0  0  0  0  0  0
   -5.5922   -1.3363    1.4220 H   0  0  0  0  0  0  0  0  0  0  0  0
   -5.8132   -1.8848   -0.2601 H   0  0  0  0  0  0  0  0  0  0  0  0
    7.0819    0.7703    1.8323 H   0  0  0  0  0  0  0  0  0  0  0  0
    7.5323    1.3353    0.2023 H   0  0  0  0  0  0  0  0  0  0  0  0
  1  2  1  0  0  0  0
  1  3  1  0  0  0  0
  1  4  2  0  0  0  0
  2  5  2  0  0  0  0
  2  6  1  0  0  0  0
  3  7  2  0  0  0  0
  3  8  1  0  0  0  0
  4  9  1  0  0  0  0
  4 25  1  0  0  0  0
  5 10  1  0  0  0  0
  5 11  1  0  0  0  0
  6 12  2  0  0  0  0
  6 26  1  0  0  0  0
  7 13  1  0  0  0  0
  7 27  1  0  0  0  0
  8 11  1  0  0  0  0
  8 28  1  0  0  0  0
  8 29  1  0  0  0  0
  9 13  2  0  0  0  0
  9 14  1  0  0  0  0
 10 15  2  0  0  0  0
 10 30  1  0  0  0  0
 11 31  1  0  0  0  0
 11 32  1  0  0  0  0
 12 15  1  0  0  0  0
 12 16  1  0  0  0  0
 13 17  1  0  0  0  0
 14 18  2  0  0  0  0
 14 33  1  0  0  0  0
 15 19  1  0  0  0  0
 16 20  1  0  0  0  0
 17 21  2  0  0  0  0
 17 22  1  0  0  0  0
 18 21  1  0  0  0  0
 18 34  1  0  0  0  0
 19 20  1  0  0  0  0
 20 35  1  0  0  0  0
 20 36  1  0  0  0  0
 21 23  1  0  0  0  0
 22 24  1  0  0  0  0
 23 24  1  0  0  0  0
 24 37  1  0  0  0  0
 24 38  1  0  0  0  0
M  CHG  1   3   1
M  END
>  <Mol_ID>
9700

>  <Formula>
C19H14NO4+

>  <MolWeight>
320.31876

>  <Cat>
E0762

>  <Name>
Coptisine Sulfate

>  <Synonyms>
Coptisine

>  <Target>
Others

>  <Form>
sulfate

>  <CAS>
3486-66-6

>  <URL>
https://www.selleckchem.com/products/coptisine.html

$$$$
