Corypalmine
 OpenBabel08302521243D

 48 51  0  0  0  0  0  0  0  0999 V2000
   -2.7248   -0.6840    0.2163 C   0  0  0  0  0  0  0  0  0  0  0  0
   -4.0787   -0.3697    0.4061 C   0  0  0  0  0  0  0  0  0  0  0  0
   -4.5516    0.9246    0.1714 C   0  0  0  0  0  0  0  0  0  0  0  0
   -3.6797    1.9208   -0.2707 C   0  0  0  0  0  0  0  0  0  0  0  0
   -2.3239    1.5980   -0.4483 C   0  0  0  0  0  0  0  0  0  0  0  0
   -1.8158    0.3149   -0.1715 C   0  0  0  0  0  0  0  0  0  0  0  0
   -0.3271   -0.0058   -0.3521 C   0  0  2  0  0  0  0  0  0  0  0  0
    0.0560   -1.3187    0.2197 N   0  0  3  0  0  0  0  0  0  0  0  0
   -0.8923   -2.3608   -0.1807 C   0  0  0  0  0  0  0  0  0  0  0  0
   -2.2447   -2.0880    0.4796 C   0  0  0  0  0  0  0  0  0  0  0  0
    0.5692    1.0556    0.3264 C   0  0  0  0  0  0  0  0  0  0  0  0
    2.0379    0.7370    0.1902 C   0  0  0  0  0  0  0  0  0  0  0  0
    2.4602   -0.5885   -0.0102 C   0  0  0  0  0  0  0  0  0  0  0  0
    1.4302   -1.6940   -0.1627 C   0  0  0  0  0  0  0  0  0  0  0  0
    2.9843    1.7548    0.3021 C   0  0  0  0  0  0  0  0  0  0  0  0
    4.3431    1.4687    0.1813 C   0  0  0  0  0  0  0  0  0  0  0  0
    4.7919    0.1592   -0.0413 C   0  0  0  0  0  0  0  0  0  0  0  0
    3.8429   -0.8823   -0.1352 C   0  0  0  0  0  0  0  0  0  0  0  0
   -5.8806    1.1715    0.3796 O   0  0  0  0  0  0  0  0  0  0  0  0
   -3.9597    3.2280   -0.5683 O   0  0  0  0  0  0  0  0  0  0  0  0
   -5.2889    3.6891   -0.3734 C   0  0  0  0  0  0  0  0  0  0  0  0
    4.0900   -2.2176   -0.3573 O   0  0  0  0  0  0  0  0  0  0  0  0
    5.4268   -2.6811   -0.4583 C   0  0  0  0  0  0  0  0  0  0  0  0
    6.1190   -0.1508   -0.1770 O   0  0  0  0  0  0  0  0  0  0  0  0
    7.0731    0.9012   -0.0924 C   0  0  0  0  0  0  0  0  0  0  0  0
   -4.7558   -1.1513    0.7394 H   0  0  0  0  0  0  0  0  0  0  0  0
   -1.6632    2.3835   -0.8106 H   0  0  0  0  0  0  0  0  0  0  0  0
   -0.1393   -0.0124   -1.4367 H   0  0  0  0  0  0  0  0  0  0  0  0
   -0.9959   -2.4009   -1.2747 H   0  0  0  0  0  0  0  0  0  0  0  0
   -0.5462   -3.3483    0.1466 H   0  0  0  0  0  0  0  0  0  0  0  0
   -2.9762   -2.8120    0.0988 H   0  0  0  0  0  0  0  0  0  0  0  0
   -2.1635   -2.2281    1.5652 H   0  0  0  0  0  0  0  0  0  0  0  0
    0.3904    2.0417   -0.1166 H   0  0  0  0  0  0  0  0  0  0  0  0
    0.3299    1.1295    1.3962 H   0  0  0  0  0  0  0  0  0  0  0  0
    1.4582   -2.0371   -1.2054 H   0  0  0  0  0  0  0  0  0  0  0  0
    1.7264   -2.5297    0.4845 H   0  0  0  0  0  0  0  0  0  0  0  0
    2.6682    2.7819    0.4740 H   0  0  0  0  0  0  0  0  0  0  0  0
    5.0308    2.3040    0.2633 H   0  0  0  0  0  0  0  0  0  0  0  0
   -6.2986    0.3717    0.7368 H   0  0  0  0  0  0  0  0  0  0  0  0
   -5.9877    3.1814   -1.0458 H   0  0  0  0  0  0  0  0  0  0  0  0
   -5.5911    3.6063    0.6757 H   0  0  0  0  0  0  0  0  0  0  0  0
   -5.3107    4.7530   -0.6303 H   0  0  0  0  0  0  0  0  0  0  0  0
    5.9192   -2.2755   -1.3474 H   0  0  0  0  0  0  0  0  0  0  0  0
    5.9922   -2.4842    0.4579 H   0  0  0  0  0  0  0  0  0  0  0  0
    5.3894   -3.7683   -0.5817 H   0  0  0  0  0  0  0  0  0  0  0  0
    6.9293    1.6307   -0.8961 H   0  0  0  0  0  0  0  0  0  0  0  0
    7.0471    1.3796    0.8917 H   0  0  0  0  0  0  0  0  0  0  0  0
    8.0661    0.4598   -0.2194 H   0  0  0  0  0  0  0  0  0  0  0  0
  1  2  2  0  0  0  0
  2  3  1  0  0  0  0
  2 26  1  0  0  0  0
  3  4  2  0  0  0  0
  3 19  1  0  0  0  0
  4  5  1  0  0  0  0
  4 20  1  0  0  0  0
  5  6  2  0  0  0  0
  5 27  1  0  0  0  0
  6  1  1  0  0  0  0
  6  7  1  0  0  0  0
  7  8  1  0  0  0  0
  7 11  1  0  0  0  0
  7 28  1  6  0  0  0
  8  9  1  0  0  0  0
  9 10  1  0  0  0  0
  9 29  1  0  0  0  0
  9 30  1  0  0  0  0
 10  1  1  0  0  0  0
 10 31  1  0  0  0  0
 10 32  1  0  0  0  0
 11 12  1  0  0  0  0
 11 33  1  0  0  0  0
 11 34  1  0  0  0  0
 12 13  2  0  0  0  0
 12 15  1  0  0  0  0
 13 14  1  0  0  0  0
 14  8  1  0  0  0  0
 14 35  1  0  0  0  0
 14 36  1  0  0  0  0
 15 16  2  0  0  0  0
 15 37  1  0  0  0  0
 16 17  1  0  0  0  0
 16 38  1  0  0  0  0
 17 18  2  0  0  0  0
 17 24  1  0  0  0  0
 18 13  1  0  0  0  0
 18 22  1  0  0  0  0
 19 39  1  0  0  0  0
 20 21  1  0  0  0  0
 21 40  1  0  0  0  0
 21 41  1  0  0  0  0
 21 42  1  0  0  0  0
 22 23  1  0  0  0  0
 23 43  1  0  0  0  0
 23 44  1  0  0  0  0
 23 45  1  0  0  0  0
 24 25  1  0  0  0  0
 25 46  1  0  0  0  0
 25 47  1  0  0  0  0
 25 48  1  0  0  0  0
M  END
>  <Mol_ID>
5128

>  <Formula>
C20H23NO4

>  <MolWeight>
341.40092

>  <Cat>
S3249

>  <Name>
Corypalmine

>  <Synonyms>
(R)-(+)-Corypalmine

>  <Target>
PREP

>  <Form>
free base

>  <CAS>
27313-86-6, 13063-54-2

>  <URL>
http://www.selleckchem.com/products/corypalmine.html

$$$$
