Coumaran
 OpenBabel08302521363D

 17 18  0  0  0  0  0  0  0  0999 V2000
    0.1728    0.7791    0.0162 C   0  0  0  0  0  0  0  0  0  0  0  0
    0.2464   -0.6057    0.0270 C   0  0  0  0  0  0  0  0  0  0  0  0
    1.5392    1.3382    0.1088 C   0  0  0  0  0  0  0  0  0  0  0  0
   -1.0505    1.4248   -0.0169 C   0  0  0  0  0  0  0  0  0  0  0  0
    1.5300   -1.0865    0.0753 O   0  0  0  0  0  0  0  0  0  0  0  0
   -0.8813   -1.3983    0.0041 C   0  0  0  0  0  0  0  0  0  0  0  0
    2.3336    0.0767   -0.2333 C   0  0  0  0  0  0  0  0  0  0  0  0
   -2.2068    0.6407   -0.0614 C   0  0  0  0  0  0  0  0  0  0  0  0
   -2.1235   -0.7622   -0.0513 C   0  0  0  0  0  0  0  0  0  0  0  0
    1.7361    2.1475   -0.5989 H   0  0  0  0  0  0  0  0  0  0  0  0
    1.7462    1.6714    1.1308 H   0  0  0  0  0  0  0  0  0  0  0  0
   -1.1160    2.5075   -0.0057 H   0  0  0  0  0  0  0  0  0  0  0  0
   -0.8023   -2.4792    0.0193 H   0  0  0  0  0  0  0  0  0  0  0  0
    3.2742    0.0275    0.3247 H   0  0  0  0  0  0  0  0  0  0  0  0
    2.5736    0.0400   -1.3040 H   0  0  0  0  0  0  0  0  0  0  0  0
   -3.1826    1.1198   -0.0991 H   0  0  0  0  0  0  0  0  0  0  0  0
   -3.0332   -1.3568   -0.0847 H   0  0  0  0  0  0  0  0  0  0  0  0
  1  2  2  0  0  0  0
  1  3  1  0  0  0  0
  1  4  1  0  0  0  0
  2  5  1  0  0  0  0
  2  6  1  0  0  0  0
  3  7  1  0  0  0  0
  3 10  1  0  0  0  0
  3 11  1  0  0  0  0
  4  8  2  0  0  0  0
  4 12  1  0  0  0  0
  5  7  1  0  0  0  0
  6  9  2  0  0  0  0
  6 13  1  0  0  0  0
  7 14  1  0  0  0  0
  7 15  1  0  0  0  0
  8  9  1  0  0  0  0
  8 16  1  0  0  0  0
  9 17  1  0  0  0  0
M  END
>  <Mol_ID>
7085

>  <Formula>
C8H8O

>  <MolWeight>
120.14852

>  <Cat>
E4100

>  <Name>
Coumaran

>  <Synonyms>
2,3-Dihydrobenzofuran

>  <Target>
AChR

>  <Form>
free base

>  <CAS>
496-16-2

>  <URL>
https://www.selleckchem.com/products/coumaran.html

$$$$
