CP91149.cdx
 OpenBabel08302521433D

 50 52  0  0  0  0  0  0  0  0999 V2000
   -6.4760   -5.8800   -7.2939 C   0  0  0  0  0  0  0  0  0  0  0  0
   -6.2996   -7.0803   -6.6064 C   0  0  0  0  0  0  0  0  0  0  0  0
   -6.2590   -7.1113   -5.2108 C   0  0  0  0  0  0  0  0  0  0  0  0
   -6.3964   -5.8941   -4.5378 C   0  0  0  0  0  0  0  0  0  0  0  0
   -6.5766   -4.6782   -5.1954 C   0  0  0  0  0  0  0  0  0  0  0  0
   -6.6161   -4.6725   -6.5997 C   0  0  0  0  0  0  0  0  0  0  0  0
   -6.3841   -5.6227   -3.1933 N   0  0  0  0  0  0  0  0  0  0  0  0
   -6.4945   -4.2673   -2.9647 C   0  0  0  0  0  0  0  0  0  0  0  0
   -6.6547   -3.6663   -4.1995 C   0  0  0  0  0  0  0  0  0  0  0  0
   -6.3648   -3.7475   -1.6319 C   0  0  0  0  0  0  0  0  0  0  0  0
   -6.4666   -2.3894   -1.5094 N   0  0  0  0  0  0  0  0  0  0  0  0
   -6.0659   -4.4809   -0.6943 O   0  0  0  0  0  0  0  0  0  0  0  0
   -6.0541   -1.6315   -0.3179 C   0  0  2  0  0  0  0  0  0  0  0  0
   -4.4947   -1.5670   -0.1727 C   0  0  2  0  0  0  0  0  0  0  0  0
   -6.7668   -2.1158    0.9740 C   0  0  0  0  0  0  0  0  0  0  0  0
   -3.8484   -0.8725   -1.4126 C   0  0  0  0  0  0  0  0  0  0  0  0
   -4.5547   -0.3943   -2.3084 O   0  0  0  0  0  0  0  0  0  0  0  0
   -2.4602   -0.7766   -1.4831 N   0  0  0  0  0  0  0  0  0  0  0  0
   -8.2840   -2.1431    0.8670 C   0  0  0  0  0  0  0  0  0  0  0  0
   -8.9923   -3.3432    1.0394 C   0  0  0  0  0  0  0  0  0  0  0  0
  -10.3870   -3.3774    0.9196 C   0  0  0  0  0  0  0  0  0  0  0  0
  -11.0871   -2.2135    0.6299 C   0  0  0  0  0  0  0  0  0  0  0  0
  -10.4010   -1.0131    0.4667 C   0  0  0  0  0  0  0  0  0  0  0  0
   -9.0104   -0.9752    0.5902 C   0  0  0  0  0  0  0  0  0  0  0  0
   -3.9343   -2.8466    0.1023 O   0  0  0  0  0  0  0  0  0  0  0  0
   -1.5160   -1.2376   -0.4761 C   0  0  0  0  0  0  0  0  0  0  0  0
   -1.8832   -0.2074   -2.6918 C   0  0  0  0  0  0  0  0  0  0  0  0
   -6.4999   -5.8786   -8.3794 H   0  0  0  0  0  0  0  0  0  0  0  0
   -6.1920   -8.0071   -7.1654 H   0  0  0  0  0  0  0  0  0  0  0  0
   -6.1180   -8.0455   -4.6757 H   0  0  0  0  0  0  0  0  0  0  0  0
   -6.7468   -3.7390   -7.1440 H   0  0  0  0  0  0  0  0  0  0  0  0
   -6.2497   -6.3037   -2.4591 H   0  0  0  0  0  0  0  0  0  0  0  0
   -6.7738   -2.6065   -4.3893 H   0  0  0  0  0  0  0  0  0  0  0  0
   -6.5972   -1.8396   -2.3491 H   0  0  0  0  0  0  0  0  0  0  0  0
   -6.3977   -0.6075   -0.5164 H   0  0  0  0  0  0  0  0  0  0  0  0
   -4.2639   -0.9281    0.6883 H   0  0  0  0  0  0  0  0  0  0  0  0
   -6.4048   -3.1089    1.2663 H   0  0  0  0  0  0  0  0  0  0  0  0
   -6.5031   -1.4544    1.8084 H   0  0  0  0  0  0  0  0  0  0  0  0
   -8.4602   -4.2669    1.2613 H   0  0  0  0  0  0  0  0  0  0  0  0
  -10.9183   -4.3172    1.0474 H   0  0  0  0  0  0  0  0  0  0  0  0
  -12.1703   -2.2403    0.5305 H   0  0  0  0  0  0  0  0  0  0  0  0
  -10.9499   -0.1022    0.2424 H   0  0  0  0  0  0  0  0  0  0  0  0
   -8.4990   -0.0260    0.4582 H   0  0  0  0  0  0  0  0  0  0  0  0
   -4.2780   -3.4695   -0.5653 H   0  0  0  0  0  0  0  0  0  0  0  0
   -0.8997   -2.0282   -0.9150 H   0  0  0  0  0  0  0  0  0  0  0  0
   -0.8728   -0.3976   -0.1950 H   0  0  0  0  0  0  0  0  0  0  0  0
   -1.9924   -1.6090    0.4284 H   0  0  0  0  0  0  0  0  0  0  0  0
   -2.2153   -0.7911   -3.5562 H   0  0  0  0  0  0  0  0  0  0  0  0
   -2.2261    0.8250   -2.8063 H   0  0  0  0  0  0  0  0  0  0  0  0
   -0.7901   -0.2223   -2.6462 H   0  0  0  0  0  0  0  0  0  0  0  0
  1  2  2  0  0  0  0
  1 28  1  0  0  0  0
  2  3  1  0  0  0  0
  2 29  1  0  0  0  0
  3  4  2  0  0  0  0
  3 30  1  0  0  0  0
  4  5  1  0  0  0  0
  4  7  1  0  0  0  0
  5  6  2  0  0  0  0
  6  1  1  0  0  0  0
  6 31  1  0  0  0  0
  7  8  1  0  0  0  0
  7 32  1  0  0  0  0
  8  9  2  0  0  0  0
  8 10  1  0  0  0  0
  9  5  1  0  0  0  0
  9 33  1  0  0  0  0
 10 11  1  0  0  0  0
 10 12  2  0  0  0  0
 11 34  1  0  0  0  0
 13 15  1  0  0  0  0
 13 35  1  6  0  0  0
 13 14  1  0  0  0  0
 13 11  1  0  0  0  0
 14 36  1  1  0  0  0
 14 25  1  0  0  0  0
 14 16  1  0  0  0  0
 15 19  1  0  0  0  0
 15 37  1  0  0  0  0
 15 38  1  0  0  0  0
 16 17  2  0  0  0  0
 16 18  1  0  0  0  0
 18 26  1  0  0  0  0
 18 27  1  0  0  0  0
 19 20  2  0  0  0  0
 20 21  1  0  0  0  0
 20 39  1  0  0  0  0
 21 22  2  0  0  0  0
 21 40  1  0  0  0  0
 22 23  1  0  0  0  0
 22 41  1  0  0  0  0
 23 24  2  0  0  0  0
 23 42  1  0  0  0  0
 24 19  1  0  0  0  0
 24 43  1  0  0  0  0
 25 44  1  0  0  0  0
 26 45  1  0  0  0  0
 26 46  1  0  0  0  0
 26 47  1  0  0  0  0
 27 48  1  0  0  0  0
 27 49  1  0  0  0  0
 27 50  1  0  0  0  0
M  END
>  <Mol_ID>
871

>  <Formula>
C21H22ClN3O3

>  <MolWeight>
399.87068

>  <Cat>
S2717

>  <Name>
CP-91149

>  <Synonyms>
N/A

>  <Target>
Phosphorylase

>  <Form>
free base

>  <CAS>
186392-40-5

>  <URL>
http://selleckchem.com/products/cp-91149.html

$$$$
