CP 673451.cdx
 OpenBabel08302521453D

 58 62  0  0  0  0  0  0  0  0999 V2000
    2.4208   -0.6550    0.1451 C   0  0  0  0  0  0  0  0  0  0  0  0
    2.3733    0.7284    0.0149 C   0  0  0  0  0  0  0  0  0  0  0  0
    1.1478    1.4198   -0.0924 C   0  0  0  0  0  0  0  0  0  0  0  0
   -0.0684    0.6863   -0.0075 C   0  0  0  0  0  0  0  0  0  0  0  0
    0.0032   -0.7173    0.1443 C   0  0  0  0  0  0  0  0  0  0  0  0
    1.2385   -1.3777    0.1956 C   0  0  0  0  0  0  0  0  0  0  0  0
   -1.2797    1.2914   -0.1025 N   0  0  0  0  0  0  0  0  0  0  0  0
   -2.4201    0.5675    0.0141 C   0  0  0  0  0  0  0  0  0  0  0  0
   -2.4144   -0.8067    0.1893 C   0  0  0  0  0  0  0  0  0  0  0  0
   -1.1849   -1.4531    0.2268 C   0  0  0  0  0  0  0  0  0  0  0  0
   -5.0215    4.8417   -1.6079 C   0  0  0  0  0  0  0  0  0  0  0  0
   -3.7024    4.5182   -1.9236 C   0  0  0  0  0  0  0  0  0  0  0  0
   -3.1137    3.3367   -1.4501 C   0  0  0  0  0  0  0  0  0  0  0  0
   -3.8947    2.4931   -0.6467 C   0  0  0  0  0  0  0  0  0  0  0  0
   -5.2220    2.7833   -0.3476 C   0  0  0  0  0  0  0  0  0  0  0  0
   -5.7889    3.9792   -0.8138 C   0  0  0  0  0  0  0  0  0  0  0  0
   -5.6837    5.9679   -2.0160 O   0  0  0  0  0  0  0  0  0  0  0  0
   -5.0781    6.7390   -3.0542 C   0  0  0  0  0  0  0  0  0  0  0  0
   -6.1053    7.7530   -3.5474 C   0  0  0  0  0  0  0  0  0  0  0  0
   -5.5319    8.5612   -4.5745 O   0  0  0  0  0  0  0  0  0  0  0  0
   -6.5034    9.4163   -5.1641 C   0  0  0  0  0  0  0  0  0  0  0  0
   -3.6561    1.2697   -0.0384 N   0  0  0  0  0  0  0  0  0  0  0  0
   -5.8002    1.7753    0.3787 N   0  0  0  0  0  0  0  0  0  0  0  0
   -4.8503    0.8792    0.5283 C   0  0  0  0  0  0  0  0  0  0  0  0
    1.7458    4.6386   -1.8204 C   0  0  0  0  0  0  0  0  0  0  0  0
    2.2436    3.3774   -1.1237 C   0  0  0  0  0  0  0  0  0  0  0  0
    1.1385    2.8070   -0.3524 N   0  0  0  0  0  0  0  0  0  0  0  0
    0.5974    3.6739    0.7025 C   0  0  0  0  0  0  0  0  0  0  0  0
    0.1185    4.9888    0.0788 C   0  0  0  0  0  0  0  0  0  0  0  0
    1.1668    5.6535   -0.8322 C   0  0  0  0  0  0  0  0  0  0  0  0
    2.2355    6.3036   -0.0603 N   0  0  0  0  0  0  0  0  0  0  0  0
    3.3792   -1.1652    0.1955 H   0  0  0  0  0  0  0  0  0  0  0  0
    3.3152    1.2697   -0.0090 H   0  0  0  0  0  0  0  0  0  0  0  0
    1.2869   -2.4608    0.2775 H   0  0  0  0  0  0  0  0  0  0  0  0
   -3.3221   -1.3963    0.2389 H   0  0  0  0  0  0  0  0  0  0  0  0
   -1.1602   -2.5364    0.3173 H   0  0  0  0  0  0  0  0  0  0  0  0
   -3.0884    5.1665   -2.5406 H   0  0  0  0  0  0  0  0  0  0  0  0
   -2.0904    3.0827   -1.7128 H   0  0  0  0  0  0  0  0  0  0  0  0
   -6.8171    4.2183   -0.5685 H   0  0  0  0  0  0  0  0  0  0  0  0
   -4.1924    7.2637   -2.6751 H   0  0  0  0  0  0  0  0  0  0  0  0
   -4.7777    6.1033   -3.8967 H   0  0  0  0  0  0  0  0  0  0  0  0
   -6.9899    7.2264   -3.9258 H   0  0  0  0  0  0  0  0  0  0  0  0
   -6.4277    8.3908   -2.7156 H   0  0  0  0  0  0  0  0  0  0  0  0
   -7.1933    8.8304   -5.7792 H   0  0  0  0  0  0  0  0  0  0  0  0
   -7.0584    9.9674   -4.3984 H   0  0  0  0  0  0  0  0  0  0  0  0
   -5.9867   10.1342   -5.8064 H   0  0  0  0  0  0  0  0  0  0  0  0
   -4.9627   -0.0410    1.0848 H   0  0  0  0  0  0  0  0  0  0  0  0
    2.5550    5.0836   -2.4100 H   0  0  0  0  0  0  0  0  0  0  0  0
    0.9588    4.3566   -2.5337 H   0  0  0  0  0  0  0  0  0  0  0  0
    2.5835    2.6786   -1.8977 H   0  0  0  0  0  0  0  0  0  0  0  0
    3.0992    3.5998   -0.4737 H   0  0  0  0  0  0  0  0  0  0  0  0
   -0.2428    3.2176    1.2370 H   0  0  0  0  0  0  0  0  0  0  0  0
    1.3739    3.8755    1.4518 H   0  0  0  0  0  0  0  0  0  0  0  0
   -0.7682    4.7805   -0.5315 H   0  0  0  0  0  0  0  0  0  0  0  0
   -0.2066    5.6820    0.8629 H   0  0  0  0  0  0  0  0  0  0  0  0
    0.6708    6.4422   -1.4083 H   0  0  0  0  0  0  0  0  0  0  0  0
    1.8281    7.0174    0.5427 H   0  0  0  0  0  0  0  0  0  0  0  0
    2.6843    5.6340    0.5606 H   0  0  0  0  0  0  0  0  0  0  0  0
  1  2  2  0  0  0  0
  1 32  1  0  0  0  0
  2  3  1  0  0  0  0
  2 33  1  0  0  0  0
  3  4  2  0  0  0  0
  3 27  1  0  0  0  0
  4  5  1  0  0  0  0
  4  7  1  0  0  0  0
  5  6  2  0  0  0  0
  6  1  1  0  0  0  0
  6 34  1  0  0  0  0
  7  8  2  0  0  0  0
  8  9  1  0  0  0  0
  8 22  1  0  0  0  0
  9 10  2  0  0  0  0
  9 35  1  0  0  0  0
 10  5  1  0  0  0  0
 10 36  1  0  0  0  0
 11 12  2  0  0  0  0
 11 17  1  0  0  0  0
 12 13  1  0  0  0  0
 12 37  1  0  0  0  0
 13 14  2  0  0  0  0
 13 38  1  0  0  0  0
 14 15  1  0  0  0  0
 14 22  1  0  0  0  0
 15 16  2  0  0  0  0
 15 23  1  0  0  0  0
 16 11  1  0  0  0  0
 16 39  1  0  0  0  0
 17 18  1  0  0  0  0
 18 19  1  0  0  0  0
 18 40  1  0  0  0  0
 18 41  1  0  0  0  0
 19 20  1  0  0  0  0
 19 42  1  0  0  0  0
 19 43  1  0  0  0  0
 20 21  1  0  0  0  0
 21 44  1  0  0  0  0
 21 45  1  0  0  0  0
 21 46  1  0  0  0  0
 22 24  1  0  0  0  0
 24 23  2  0  0  0  0
 24 47  1  0  0  0  0
 25 26  1  0  0  0  0
 25 48  1  0  0  0  0
 25 49  1  0  0  0  0
 26 27  1  0  0  0  0
 26 50  1  0  0  0  0
 26 51  1  0  0  0  0
 27 28  1  0  0  0  0
 28 29  1  0  0  0  0
 28 52  1  0  0  0  0
 28 53  1  0  0  0  0
 29 30  1  0  0  0  0
 29 54  1  0  0  0  0
 29 55  1  0  0  0  0
 30 25  1  0  0  0  0
 30 31  1  0  0  0  0
 30 56  1  0  0  0  0
 31 57  1  0  0  0  0
 31 58  1  0  0  0  0
M  END
>  <Mol_ID>
965

>  <Formula>
C24H27N5O2

>  <MolWeight>
417.50348

>  <Cat>
S1536

>  <Name>
CP-673451

>  <Synonyms>
N/A

>  <Target>
PDGFR

>  <Form>
free base

>  <CAS>
343787-29-1

>  <URL>
http://selleckchem.com/products/CP-673451.html

$$$$
