CPI-637.cdx
 OpenBabel08302520413D

 51 55  0  0  0  0  0  0  0  0999 V2000
   -0.2515   -0.4524    0.0086 C   0  0  0  0  0  0  0  0  0  0  0  0
    0.1945    0.8646   -0.0618 C   0  0  0  0  0  0  0  0  0  0  0  0
    1.5883    1.1014   -0.0986 C   0  0  0  0  0  0  0  0  0  0  0  0
    2.5321    0.0536    0.0267 C   0  0  0  0  0  0  0  0  0  0  0  0
    1.9954   -1.2386    0.1585 C   0  0  0  0  0  0  0  0  0  0  0  0
    0.6251   -1.5307    0.0974 C   0  0  0  0  0  0  0  0  0  0  0  0
   -1.6173   -0.3773   -0.0101 N   0  0  0  0  0  0  0  0  0  0  0  0
   -2.0968    0.8829    0.0127 N   0  0  0  0  0  0  0  0  0  0  0  0
   -0.9935    1.6409   -0.0402 C   0  0  0  0  0  0  0  0  0  0  0  0
   -1.0401    3.0953    0.0155 C   0  0  0  0  0  0  0  0  0  0  0  0
   -2.5293   -1.4939   -0.0185 C   0  0  0  0  0  0  0  0  0  0  0  0
    4.0116    0.3540    0.0716 C   0  0  0  0  0  0  0  0  0  0  0  0
    4.4205    1.5837    0.6441 C   0  0  0  0  0  0  0  0  0  0  0  0
    5.7545    1.9774    0.7115 C   0  0  0  0  0  0  0  0  0  0  0  0
    6.7405    1.1249    0.2514 C   0  0  0  0  0  0  0  0  0  0  0  0
    6.4144   -0.1479   -0.2309 C   0  0  0  0  0  0  0  0  0  0  0  0
    5.0512   -0.5245   -0.3833 C   0  0  0  0  0  0  0  0  0  0  0  0
    7.5396   -0.9779   -0.4408 N   0  0  0  0  0  0  0  0  0  0  0  0
    7.6868   -2.3248   -0.3555 C   0  0  0  0  0  0  0  0  0  0  0  0
    6.5943   -3.3108   -0.6197 C   0  0  0  0  0  0  0  0  0  0  0  0
    5.2215   -2.9361   -0.1150 C   0  0  2  0  0  0  0  0  0  0  0  0
    4.7455   -1.7957   -0.8912 N   0  0  0  0  0  0  0  0  0  0  0  0
    5.1484   -2.7783    1.4123 C   0  0  0  0  0  0  0  0  0  0  0  0
    8.8254   -2.7433   -0.1067 O   0  0  0  0  0  0  0  0  0  0  0  0
   -2.0083    3.8496    0.7037 C   0  0  0  0  0  0  0  0  0  0  0  0
   -1.7750    5.1653    0.6299 N   0  0  0  0  0  0  0  0  0  0  0  0
   -0.6661    5.2452   -0.1298 N   0  0  0  0  0  0  0  0  0  0  0  0
   -0.1888    4.0268   -0.5292 C   0  0  0  0  0  0  0  0  0  0  0  0
   -0.0936    6.5324   -0.4284 C   0  0  0  0  0  0  0  0  0  0  0  0
    1.9264    2.1286   -0.1949 H   0  0  0  0  0  0  0  0  0  0  0  0
    2.6357   -2.0921    0.3341 H   0  0  0  0  0  0  0  0  0  0  0  0
    0.2733   -2.5545    0.1695 H   0  0  0  0  0  0  0  0  0  0  0  0
   -2.3777   -2.0474   -0.9494 H   0  0  0  0  0  0  0  0  0  0  0  0
   -2.3105   -2.1282    0.8445 H   0  0  0  0  0  0  0  0  0  0  0  0
   -3.5588   -1.1313    0.0382 H   0  0  0  0  0  0  0  0  0  0  0  0
    3.6897    2.2615    1.0814 H   0  0  0  0  0  0  0  0  0  0  0  0
    6.0227    2.9295    1.1615 H   0  0  0  0  0  0  0  0  0  0  0  0
    7.7792    1.4340    0.3512 H   0  0  0  0  0  0  0  0  0  0  0  0
    8.4412   -0.5337   -0.3141 H   0  0  0  0  0  0  0  0  0  0  0  0
    6.5684   -3.4864   -1.6975 H   0  0  0  0  0  0  0  0  0  0  0  0
    6.8852   -4.2593   -0.1450 H   0  0  0  0  0  0  0  0  0  0  0  0
    4.5561   -3.7745   -0.3639 H   0  0  0  0  0  0  0  0  0  0  0  0
    3.8173   -1.8775   -1.2889 H   0  0  0  0  0  0  0  0  0  0  0  0
    4.1118   -2.7260    1.7589 H   0  0  0  0  0  0  0  0  0  0  0  0
    5.6083   -3.6374    1.9105 H   0  0  0  0  0  0  0  0  0  0  0  0
    5.6544   -1.8831    1.7855 H   0  0  0  0  0  0  0  0  0  0  0  0
   -2.8587    3.4934    1.2695 H   0  0  0  0  0  0  0  0  0  0  0  0
    0.6885    3.9390   -1.1491 H   0  0  0  0  0  0  0  0  0  0  0  0
   -0.8720    7.1640   -0.8631 H   0  0  0  0  0  0  0  0  0  0  0  0
    0.2827    6.9638    0.5020 H   0  0  0  0  0  0  0  0  0  0  0  0
    0.7265    6.4084   -1.1418 H   0  0  0  0  0  0  0  0  0  0  0  0
  1  2  1  0  0  0  0
  1  7  1  0  0  0  0
  2  3  2  0  0  0  0
  3  4  1  0  0  0  0
  3 30  1  0  0  0  0
  4  5  2  0  0  0  0
  4 12  1  0  0  0  0
  5  6  1  0  0  0  0
  5 31  1  0  0  0  0
  6  1  2  0  0  0  0
  6 32  1  0  0  0  0
  7  8  1  0  0  0  0
  7 11  1  0  0  0  0
  8  9  2  0  0  0  0
  9  2  1  0  0  0  0
  9 10  1  0  0  0  0
 10 25  1  0  0  0  0
 11 33  1  0  0  0  0
 11 34  1  0  0  0  0
 11 35  1  0  0  0  0
 12 13  2  0  0  0  0
 13 14  1  0  0  0  0
 13 36  1  0  0  0  0
 14 15  2  0  0  0  0
 14 37  1  0  0  0  0
 15 16  1  0  0  0  0
 15 38  1  0  0  0  0
 16 17  2  0  0  0  0
 16 18  1  0  0  0  0
 17 12  1  0  0  0  0
 18 19  1  0  0  0  0
 18 39  1  0  0  0  0
 19 20  1  0  0  0  0
 19 24  2  0  0  0  0
 20 21  1  0  0  0  0
 20 40  1  0  0  0  0
 20 41  1  0  0  0  0
 21 22  1  0  0  0  0
 21 42  1  6  0  0  0
 21 23  1  0  0  0  0
 22 17  1  0  0  0  0
 22 43  1  0  0  0  0
 23 44  1  0  0  0  0
 23 45  1  0  0  0  0
 23 46  1  0  0  0  0
 25 26  2  0  0  0  0
 25 47  1  0  0  0  0
 26 27  1  0  0  0  0
 27 28  1  0  0  0  0
 27 29  1  0  0  0  0
 28 10  2  0  0  0  0
 28 48  1  0  0  0  0
 29 49  1  0  0  0  0
 29 50  1  0  0  0  0
 29 51  1  0  0  0  0
M  END
>  <Mol_ID>
3964

>  <Formula>
C22H22N6O

>  <MolWeight>
386.44968

>  <Cat>
S8190

>  <Name>
CPI-637

>  <Synonyms>
N/A

>  <Target>
Epigenetic Reader Domain,Histone Acetyltransferase

>  <Form>
free base

>  <CAS>
1884712-47-3

>  <URL>
http://selleckchem.com/products/cpi-637.html

$$$$
