CPI-1189
 OpenBabel08302521233D

 35 35  0  0  0  0  0  0  0  0999 V2000
    1.7551    1.0716    0.2472 O   0  0  0  0  0  0  0  0  0  0  0  0
    4.7527   -5.7565    1.9170 O   0  0  0  0  0  0  0  0  0  0  0  0
    1.8796   -0.5538   -1.3943 N   0  0  0  0  0  0  0  0  0  0  0  0
    5.4168   -3.6812    2.7687 N   0  0  0  0  0  0  0  0  0  0  0  0
    1.4021    0.1537   -2.5994 C   0  0  0  0  0  0  0  0  0  0  0  0
    2.2851    1.3665   -2.9278 C   0  0  0  0  0  0  0  0  0  0  0  0
    1.4973   -0.8530   -3.7682 C   0  0  0  0  0  0  0  0  0  0  0  0
   -0.0613    0.6060   -2.4870 C   0  0  0  0  0  0  0  0  0  0  0  0
    2.0518   -0.0491   -0.1149 C   0  0  0  0  0  0  0  0  0  0  0  0
    2.7647   -1.0003    0.8108 C   0  0  0  0  0  0  0  0  0  0  0  0
    2.5790   -2.3824    0.6961 C   0  0  0  0  0  0  0  0  0  0  0  0
    3.7074   -0.5299    1.7323 C   0  0  0  0  0  0  0  0  0  0  0  0
    4.4440   -2.8184    2.1986 C   0  0  0  0  0  0  0  0  0  0  0  0
    3.4081   -3.2732    1.3813 C   0  0  0  0  0  0  0  0  0  0  0  0
    4.5477   -1.4363    2.4142 C   0  0  0  0  0  0  0  0  0  0  0  0
    5.5305   -5.0484    2.5506 C   0  0  0  0  0  0  0  0  0  0  0  0
    6.7673   -5.6636    3.1625 C   0  0  0  0  0  0  0  0  0  0  0  0
    2.3470   -1.4315   -1.5840 H   0  0  0  0  0  0  0  0  0  0  0  0
    6.1494   -3.2381    3.3124 H   0  0  0  0  0  0  0  0  0  0  0  0
    3.3323    1.0736   -3.0606 H   0  0  0  0  0  0  0  0  0  0  0  0
    1.9563    1.8505   -3.8559 H   0  0  0  0  0  0  0  0  0  0  0  0
    2.2481    2.1202   -2.1351 H   0  0  0  0  0  0  0  0  0  0  0  0
    0.9810   -1.7893   -3.5202 H   0  0  0  0  0  0  0  0  0  0  0  0
    1.0543   -0.4579   -4.6882 H   0  0  0  0  0  0  0  0  0  0  0  0
    2.5418   -1.1132   -3.9793 H   0  0  0  0  0  0  0  0  0  0  0  0
   -0.7474   -0.2484   -2.4997 H   0  0  0  0  0  0  0  0  0  0  0  0
   -0.2509    1.1757   -1.5735 H   0  0  0  0  0  0  0  0  0  0  0  0
   -0.3327    1.2461   -3.3376 H   0  0  0  0  0  0  0  0  0  0  0  0
    1.8023   -2.7889    0.0509 H   0  0  0  0  0  0  0  0  0  0  0  0
    3.8254    0.5418    1.8857 H   0  0  0  0  0  0  0  0  0  0  0  0
    3.2297   -4.3339    1.2249 H   0  0  0  0  0  0  0  0  0  0  0  0
    5.3061   -1.0310    3.0825 H   0  0  0  0  0  0  0  0  0  0  0  0
    7.6664   -5.1894    2.7632 H   0  0  0  0  0  0  0  0  0  0  0  0
    6.7371   -5.5805    4.2503 H   0  0  0  0  0  0  0  0  0  0  0  0
    6.7979   -6.7268    2.8971 H   0  0  0  0  0  0  0  0  0  0  0  0
  1  9  2  0  0  0  0
  2 16  2  0  0  0  0
  3  5  1  0  0  0  0
  3  9  1  0  0  0  0
  3 18  1  0  0  0  0
  4 13  1  0  0  0  0
  4 16  1  0  0  0  0
  4 19  1  0  0  0  0
  5  6  1  0  0  0  0
  5  7  1  0  0  0  0
  5  8  1  0  0  0  0
  6 20  1  0  0  0  0
  6 21  1  0  0  0  0
  6 22  1  0  0  0  0
  7 23  1  0  0  0  0
  7 24  1  0  0  0  0
  7 25  1  0  0  0  0
  8 26  1  0  0  0  0
  8 27  1  0  0  0  0
  8 28  1  0  0  0  0
  9 10  1  0  0  0  0
 10 11  2  0  0  0  0
 10 12  1  0  0  0  0
 11 14  1  0  0  0  0
 11 29  1  0  0  0  0
 12 15  2  0  0  0  0
 12 30  1  0  0  0  0
 13 14  2  0  0  0  0
 13 15  1  0  0  0  0
 14 31  1  0  0  0  0
 15 32  1  0  0  0  0
 16 17  1  0  0  0  0
 17 33  1  0  0  0  0
 17 34  1  0  0  0  0
 17 35  1  0  0  0  0
M  END
>  <Mol_ID>
4881

>  <Formula>
C13H18N2O2

>  <MolWeight>
234.29422

>  <Cat>
S2465

>  <Name>
CPI-1189

>  <Synonyms>
REN 1654, REN 1189

>  <Target>
TNF-alpha

>  <Form>
Free Base

>  <CAS>
183619-38-7

>  <URL>
http://www.selleck.cn/products/cpi-1189.html

$$$$
