CPI-360.cdx
 OpenBabel08302519563D

 63 66  0  0  0  0  0  0  0  0999 V2000
   -0.0586   -2.0381  -12.7007 C   0  0  0  0  0  0  0  0  0  0  0  0
   -0.3903   -2.6781  -11.5357 N   0  0  0  0  0  0  0  0  0  0  0  0
    0.5105   -3.1140  -10.6008 C   0  0  0  0  0  0  0  0  0  0  0  0
    1.9534   -2.7782  -10.8336 C   0  0  0  0  0  0  0  0  0  0  0  0
    2.2596   -2.1166  -11.9749 C   0  0  0  0  0  0  0  0  0  0  0  0
    1.2296   -1.7530  -12.9368 C   0  0  0  0  0  0  0  0  0  0  0  0
    0.1117   -3.7446   -9.6262 O   0  0  0  0  0  0  0  0  0  0  0  0
   -1.1822   -1.7243  -13.6397 C   0  0  0  0  0  0  0  0  0  0  0  0
    3.5542   -1.6776  -12.1884 O   0  0  0  0  0  0  0  0  0  0  0  0
    4.0494   -1.6593  -13.5220 C   0  0  0  0  0  0  0  0  0  0  0  0
    2.9883   -3.1152   -9.7819 C   0  0  0  0  0  0  0  0  0  0  0  0
    2.3990   -3.3972   -8.4832 N   0  0  0  0  0  0  0  0  0  0  0  0
    2.3761   -2.7217   -7.2907 C   0  0  0  0  0  0  0  0  0  0  0  0
    3.1128   -1.4668   -7.1494 C   0  0  0  0  0  0  0  0  0  0  0  0
    1.7900   -3.2383   -6.3453 O   0  0  0  0  0  0  0  0  0  0  0  0
    3.1384   -0.3525   -8.0389 C   0  0  0  0  0  0  0  0  0  0  0  0
    4.1696    0.4854   -7.6173 C   0  0  0  0  0  0  0  0  0  0  0  0
    4.5785    0.0421   -6.3592 N   0  0  0  0  0  0  0  0  0  0  0  0
    3.8891   -1.1212   -6.0448 C   0  0  0  0  0  0  0  0  0  0  0  0
    2.4258   -0.0183   -9.2056 C   0  0  0  0  0  0  0  0  0  0  0  0
    2.9010    0.9855  -10.0489 C   0  0  0  0  0  0  0  0  0  0  0  0
    3.9919    1.7493   -9.6691 C   0  0  0  0  0  0  0  0  0  0  0  0
    4.6003    1.5564   -8.4230 C   0  0  0  0  0  0  0  0  0  0  0  0
    4.0021   -1.8928   -4.7701 C   0  0  0  0  0  0  0  0  0  0  0  0
    5.6025    0.7589   -5.5831 C   0  0  2  0  0  0  0  0  0  0  0  0
    6.6064   -0.1246   -4.8315 C   0  0  0  0  0  0  0  0  0  0  0  0
    5.0086    1.9476   -4.7709 C   0  0  0  0  0  0  0  0  0  0  0  0
    6.1152    2.8954   -4.2747 C   0  0  0  0  0  0  0  0  0  0  0  0
    5.5446    4.0300   -3.4330 C   0  0  0  0  0  0  0  0  0  0  0  0
    4.7948    3.5053   -2.3408 O   0  0  0  0  0  0  0  0  0  0  0  0
    3.6696    2.7475   -2.7828 C   0  0  0  0  0  0  0  0  0  0  0  0
    4.1197    1.5306   -3.5869 C   0  0  0  0  0  0  0  0  0  0  0  0
   -1.3578   -2.8886  -11.3254 H   0  0  0  0  0  0  0  0  0  0  0  0
    1.4971   -1.2368  -13.8495 H   0  0  0  0  0  0  0  0  0  0  0  0
   -1.6956   -2.6479  -13.9321 H   0  0  0  0  0  0  0  0  0  0  0  0
   -1.9106   -1.0618  -13.1635 H   0  0  0  0  0  0  0  0  0  0  0  0
   -0.8281   -1.2381  -14.5546 H   0  0  0  0  0  0  0  0  0  0  0  0
    3.9268   -2.6354  -14.0002 H   0  0  0  0  0  0  0  0  0  0  0  0
    3.5786   -0.8685  -14.1143 H   0  0  0  0  0  0  0  0  0  0  0  0
    5.1186   -1.4297  -13.4766 H   0  0  0  0  0  0  0  0  0  0  0  0
    3.5024   -4.0330  -10.0893 H   0  0  0  0  0  0  0  0  0  0  0  0
    3.7564   -2.3440   -9.6874 H   0  0  0  0  0  0  0  0  0  0  0  0
    1.7426   -4.1724   -8.4624 H   0  0  0  0  0  0  0  0  0  0  0  0
    1.5505   -0.5856   -9.4874 H   0  0  0  0  0  0  0  0  0  0  0  0
    2.4294    1.1369  -11.0146 H   0  0  0  0  0  0  0  0  0  0  0  0
    4.3650    2.5205  -10.3387 H   0  0  0  0  0  0  0  0  0  0  0  0
    5.4143    2.2069   -8.1232 H   0  0  0  0  0  0  0  0  0  0  0  0
    3.0113   -2.2187   -4.4331 H   0  0  0  0  0  0  0  0  0  0  0  0
    4.6190   -2.7854   -4.9183 H   0  0  0  0  0  0  0  0  0  0  0  0
    4.4038   -1.3175   -3.9407 H   0  0  0  0  0  0  0  0  0  0  0  0
    6.2314    1.2168   -6.3576 H   0  0  0  0  0  0  0  0  0  0  0  0
    6.8897   -0.9969   -5.4277 H   0  0  0  0  0  0  0  0  0  0  0  0
    7.5251    0.4355   -4.6259 H   0  0  0  0  0  0  0  0  0  0  0  0
    6.2395   -0.4709   -3.8641 H   0  0  0  0  0  0  0  0  0  0  0  0
    4.3738    2.5343   -5.4497 H   0  0  0  0  0  0  0  0  0  0  0  0
    6.8260    2.3423   -3.6526 H   0  0  0  0  0  0  0  0  0  0  0  0
    6.6711    3.3106   -5.1252 H   0  0  0  0  0  0  0  0  0  0  0  0
    6.3618    4.6304   -3.0190 H   0  0  0  0  0  0  0  0  0  0  0  0
    4.9122    4.6979   -4.0291 H   0  0  0  0  0  0  0  0  0  0  0  0
    3.0026    3.3916   -3.3676 H   0  0  0  0  0  0  0  0  0  0  0  0
    3.1192    2.4220   -1.8945 H   0  0  0  0  0  0  0  0  0  0  0  0
    3.2370    0.9861   -3.9375 H   0  0  0  0  0  0  0  0  0  0  0  0
    4.6812    0.8701   -2.9183 H   0  0  0  0  0  0  0  0  0  0  0  0
  1  2  1  0  0  0  0
  1  8  1  0  0  0  0
  2  3  1  0  0  0  0
  2 33  1  0  0  0  0
  3  4  1  0  0  0  0
  3  7  2  0  0  0  0
  4  5  2  0  0  0  0
  4 11  1  0  0  0  0
  5  6  1  0  0  0  0
  5  9  1  0  0  0  0
  6  1  2  0  0  0  0
  6 34  1  0  0  0  0
  8 35  1  0  0  0  0
  8 36  1  0  0  0  0
  8 37  1  0  0  0  0
  9 10  1  0  0  0  0
 10 38  1  0  0  0  0
 10 39  1  0  0  0  0
 10 40  1  0  0  0  0
 11 12  1  0  0  0  0
 11 41  1  0  0  0  0
 11 42  1  0  0  0  0
 12 13  1  0  0  0  0
 12 43  1  0  0  0  0
 13 14  1  0  0  0  0
 13 15  2  0  0  0  0
 14 16  1  0  0  0  0
 16 17  2  0  0  0  0
 16 20  1  0  0  0  0
 17 18  1  0  0  0  0
 18 19  1  0  0  0  0
 19 14  2  0  0  0  0
 19 24  1  0  0  0  0
 20 21  2  0  0  0  0
 20 44  1  0  0  0  0
 21 22  1  0  0  0  0
 21 45  1  0  0  0  0
 22 23  2  0  0  0  0
 22 46  1  0  0  0  0
 23 17  1  0  0  0  0
 23 47  1  0  0  0  0
 24 48  1  0  0  0  0
 24 49  1  0  0  0  0
 24 50  1  0  0  0  0
 25 27  1  0  0  0  0
 25 51  1  6  0  0  0
 25 26  1  0  0  0  0
 25 18  1  0  0  0  0
 26 52  1  0  0  0  0
 26 53  1  0  0  0  0
 26 54  1  0  0  0  0
 27 28  1  0  0  0  0
 27 55  1  0  0  0  0
 28 29  1  0  0  0  0
 28 56  1  0  0  0  0
 28 57  1  0  0  0  0
 29 30  1  0  0  0  0
 29 58  1  0  0  0  0
 29 59  1  0  0  0  0
 30 31  1  0  0  0  0
 31 32  1  0  0  0  0
 31 60  1  0  0  0  0
 31 61  1  0  0  0  0
 32 27  1  0  0  0  0
 32 62  1  0  0  0  0
 32 63  1  0  0  0  0
M  END
>  <Mol_ID>
2190

>  <Formula>
C25H31N3O4

>  <MolWeight>
437.53134

>  <Cat>
S7656

>  <Name>
CPI-360

>  <Synonyms>
N/A

>  <Target>
EZH1/2,Histone Methyltransferase

>  <Form>
free base

>  <CAS>
1802175-06-9

>  <URL>
http://selleckchem.com/products/cpi-360.html

$$$$
