CPI203 .cdx
 OpenBabel08302519583D

 45 48  0  0  0  0  0  0  0  0999 V2000
    3.3887   -0.4254    0.1618 C   0  0  0  0  0  0  0  0  0  0  0  0
    2.8801    0.8557   -0.0186 C   0  0  0  0  0  0  0  0  0  0  0  0
    1.4231    0.8326   -0.2235 C   0  0  0  0  0  0  0  0  0  0  0  0
    0.9487   -0.4597   -0.0811 C   0  0  0  0  0  0  0  0  0  0  0  0
    2.1605   -1.6078    0.1566 S   0  0  0  0  0  0  0  0  0  0  0  0
    0.5672    1.9636   -0.6365 C   0  0  0  0  0  0  0  0  0  0  0  0
   -0.6334    2.1622   -0.2227 N   0  0  0  0  0  0  0  0  0  0  0  0
   -1.2714    1.3442    0.8045 C   0  0  2  0  0  0  0  0  0  0  0  0
   -1.4510   -0.0605    0.3138 C   0  0  0  0  0  0  0  0  0  0  0  0
   -0.3906   -0.8618   -0.0766 N   0  0  0  0  0  0  0  0  0  0  0  0
   -2.5725   -0.7505    0.2815 N   0  0  0  0  0  0  0  0  0  0  0  0
   -2.2867   -2.0025   -0.1712 N   0  0  0  0  0  0  0  0  0  0  0  0
   -0.9936   -2.0694   -0.4145 C   0  0  0  0  0  0  0  0  0  0  0  0
    1.1100    2.9066   -1.6578 C   0  0  0  0  0  0  0  0  0  0  0  0
    3.7330    2.0946   -0.0249 C   0  0  0  0  0  0  0  0  0  0  0  0
    4.8017   -0.8804    0.3537 C   0  0  0  0  0  0  0  0  0  0  0  0
    1.8926    2.4457   -2.7257 C   0  0  0  0  0  0  0  0  0  0  0  0
    2.4742    3.3574   -3.6060 C   0  0  0  0  0  0  0  0  0  0  0  0
    2.2372    4.7229   -3.4493 C   0  0  0  0  0  0  0  0  0  0  0  0
    1.4067    5.1799   -2.4251 C   0  0  0  0  0  0  0  0  0  0  0  0
    0.8404    4.2740   -1.5283 C   0  0  0  0  0  0  0  0  0  0  0  0
   -0.3405   -3.2180   -1.0865 C   0  0  0  0  0  0  0  0  0  0  0  0
   -2.6463    1.9678    1.0988 C   0  0  0  0  0  0  0  0  0  0  0  0
   -2.5430    3.3330    1.7318 C   0  0  0  0  0  0  0  0  0  0  0  0
   -1.5869    3.7354    2.3864 O   0  0  0  0  0  0  0  0  0  0  0  0
   -3.6651    4.1011    1.5860 N   0  0  0  0  0  0  0  0  0  0  0  0
   -0.6707    1.3427    1.7246 H   0  0  0  0  0  0  0  0  0  0  0  0
    3.9363    2.4246   -1.0465 H   0  0  0  0  0  0  0  0  0  0  0  0
    3.2463    2.9050    0.5252 H   0  0  0  0  0  0  0  0  0  0  0  0
    4.7056    1.9275    0.4459 H   0  0  0  0  0  0  0  0  0  0  0  0
    4.9362   -1.2974    1.3574 H   0  0  0  0  0  0  0  0  0  0  0  0
    5.0631   -1.6507   -0.3802 H   0  0  0  0  0  0  0  0  0  0  0  0
    5.5209   -0.0666    0.2315 H   0  0  0  0  0  0  0  0  0  0  0  0
    2.0864    1.3843   -2.8583 H   0  0  0  0  0  0  0  0  0  0  0  0
    3.1229    3.0034   -4.4029 H   0  0  0  0  0  0  0  0  0  0  0  0
    2.6992    5.4335   -4.1300 H   0  0  0  0  0  0  0  0  0  0  0  0
    1.2091    6.2436   -2.3173 H   0  0  0  0  0  0  0  0  0  0  0  0
    0.2076    4.6355   -0.7195 H   0  0  0  0  0  0  0  0  0  0  0  0
    0.2513   -2.8884   -1.9462 H   0  0  0  0  0  0  0  0  0  0  0  0
    0.2922   -3.7814   -0.3959 H   0  0  0  0  0  0  0  0  0  0  0  0
   -1.0997   -3.9101   -1.4658 H   0  0  0  0  0  0  0  0  0  0  0  0
   -3.2262    2.0510    0.1684 H   0  0  0  0  0  0  0  0  0  0  0  0
   -3.2160    1.3404    1.7917 H   0  0  0  0  0  0  0  0  0  0  0  0
   -4.5066    3.7599    1.1429 H   0  0  0  0  0  0  0  0  0  0  0  0
   -3.6734    5.0145    2.0173 H   0  0  0  0  0  0  0  0  0  0  0  0
  1  2  2  0  0  0  0
  1 16  1  0  0  0  0
  2  3  1  0  0  0  0
  2 15  1  0  0  0  0
  3  4  2  0  0  0  0
  3  6  1  0  0  0  0
  4  5  1  0  0  0  0
  5  1  1  0  0  0  0
  6  7  2  0  0  0  0
  6 14  1  0  0  0  0
  7  8  1  0  0  0  0
  8  9  1  0  0  0  0
  8 27  1  1  0  0  0
  8 23  1  0  0  0  0
  9 10  1  0  0  0  0
  9 11  2  0  0  0  0
 10  4  1  0  0  0  0
 11 12  1  0  0  0  0
 12 13  2  0  0  0  0
 13 10  1  0  0  0  0
 13 22  1  0  0  0  0
 14 17  2  0  0  0  0
 15 28  1  0  0  0  0
 15 29  1  0  0  0  0
 15 30  1  0  0  0  0
 16 31  1  0  0  0  0
 16 32  1  0  0  0  0
 16 33  1  0  0  0  0
 17 18  1  0  0  0  0
 17 34  1  0  0  0  0
 18 19  2  0  0  0  0
 18 35  1  0  0  0  0
 19 20  1  0  0  0  0
 19 36  1  0  0  0  0
 20 21  2  0  0  0  0
 20 37  1  0  0  0  0
 21 14  1  0  0  0  0
 21 38  1  0  0  0  0
 22 39  1  0  0  0  0
 22 40  1  0  0  0  0
 22 41  1  0  0  0  0
 23 24  1  0  0  0  0
 23 42  1  0  0  0  0
 23 43  1  0  0  0  0
 24 25  2  0  0  0  0
 24 26  1  0  0  0  0
 26 44  1  0  0  0  0
 26 45  1  0  0  0  0
M  END
>  <Mol_ID>
2435

>  <Formula>
C19H18ClN5OS

>  <MolWeight>
399.89712

>  <Cat>
S7304

>  <Name>
CPI-203

>  <Synonyms>
N/A

>  <Target>
Epigenetic Reader Domain

>  <Form>
free base

>  <CAS>
1446144-04-2

>  <URL>
http://selleckchem.com/products/cpi-203.html

$$$$
