Crotamiton
 OpenBabel08302521313D

 32 32  0  0  0  0  0  0  0  0999 V2000
   -0.0476   -0.4574    1.2514 C   0  0  0  0  0  0  0  0  0  0  0  0
   -0.5865    0.8333    1.1182 C   0  0  0  0  0  0  0  0  0  0  0  0
   -0.8277    1.3832   -0.1420 C   0  0  0  0  0  0  0  0  0  0  0  0
   -0.5288    0.6544   -1.2889 C   0  0  0  0  0  0  0  0  0  0  0  0
    0.0333   -0.6162   -1.1772 C   0  0  0  0  0  0  0  0  0  0  0  0
    0.2814   -1.1741    0.0851 C   0  0  0  0  0  0  0  0  0  0  0  0
    0.1711   -1.0104    2.6319 C   0  0  0  0  0  0  0  0  0  0  0  0
    0.9052   -2.4461    0.1473 N   0  0  0  0  0  0  0  0  0  0  0  0
    0.2212   -3.6628    0.1290 C   0  0  0  0  0  0  0  0  0  0  0  0
    2.3522   -2.4751   -0.0936 C   0  0  0  0  0  0  0  0  0  0  0  0
    3.1533   -2.5331    1.1969 C   0  0  0  0  0  0  0  0  0  0  0  0
   -1.2733   -3.6233    0.1016 C   0  0  0  0  0  0  0  0  0  0  0  0
   -1.9735   -4.7680    0.0058 C   0  0  0  0  0  0  0  0  0  0  0  0
    0.8084   -4.7468    0.1119 O   0  0  0  0  0  0  0  0  0  0  0  0
   -3.4627   -4.8366   -0.0549 C   0  0  0  0  0  0  0  0  0  0  0  0
   -0.8239    1.4230    2.0008 H   0  0  0  0  0  0  0  0  0  0  0  0
   -1.2505    2.3820   -0.2264 H   0  0  0  0  0  0  0  0  0  0  0  0
   -0.7246    1.0791   -2.2703 H   0  0  0  0  0  0  0  0  0  0  0  0
    0.2756   -1.1738   -2.0788 H   0  0  0  0  0  0  0  0  0  0  0  0
   -0.3039   -1.9902    2.7351 H   0  0  0  0  0  0  0  0  0  0  0  0
    1.2369   -1.0927    2.8535 H   0  0  0  0  0  0  0  0  0  0  0  0
   -0.2693   -0.3576    3.3939 H   0  0  0  0  0  0  0  0  0  0  0  0
    2.5957   -3.3538   -0.7027 H   0  0  0  0  0  0  0  0  0  0  0  0
    2.6564   -1.5995   -0.6795 H   0  0  0  0  0  0  0  0  0  0  0  0
    2.7674   -3.2987    1.8772 H   0  0  0  0  0  0  0  0  0  0  0  0
    4.2027   -2.7578    0.9825 H   0  0  0  0  0  0  0  0  0  0  0  0
    3.1227   -1.5702    1.7147 H   0  0  0  0  0  0  0  0  0  0  0  0
   -1.7794   -2.6707    0.1433 H   0  0  0  0  0  0  0  0  0  0  0  0
   -1.4496   -5.7213   -0.0411 H   0  0  0  0  0  0  0  0  0  0  0  0
   -3.7743   -5.3479   -0.9711 H   0  0  0  0  0  0  0  0  0  0  0  0
   -3.8455   -5.4011    0.8005 H   0  0  0  0  0  0  0  0  0  0  0  0
   -3.9232   -3.8439   -0.0455 H   0  0  0  0  0  0  0  0  0  0  0  0
  1  2  2  0  0  0  0
  1  7  1  0  0  0  0
  2  3  1  0  0  0  0
  2 16  1  0  0  0  0
  3  4  2  0  0  0  0
  3 17  1  0  0  0  0
  4  5  1  0  0  0  0
  4 18  1  0  0  0  0
  5  6  2  0  0  0  0
  5 19  1  0  0  0  0
  6  1  1  0  0  0  0
  6  8  1  0  0  0  0
  7 20  1  0  0  0  0
  7 21  1  0  0  0  0
  7 22  1  0  0  0  0
  8  9  1  0  0  0  0
  8 10  1  0  0  0  0
  9 12  1  0  0  0  0
  9 14  2  0  0  0  0
 10 11  1  0  0  0  0
 10 23  1  0  0  0  0
 10 24  1  0  0  0  0
 11 25  1  0  0  0  0
 11 26  1  0  0  0  0
 11 27  1  0  0  0  0
 12 13  2  0  0  0  0
 12 28  1  0  0  0  0
 13 15  1  0  0  0  0
 13 29  1  0  0  0  0
 15 30  1  0  0  0  0
 15 31  1  0  0  0  0
 15 32  1  0  0  0  0
M  END
>  <Mol_ID>
5793

>  <Formula>
C13H17NO

>  <MolWeight>
203.28018

>  <Cat>
S1711

>  <Name>
Crotamiton

>  <Synonyms>
N/A

>  <Target>
Others

>  <Form>
Free Base

>  <CAS>
483-63-6

>  <URL>
http://www.selleckchem.com/products/Crotamiton.html

$$$$
