CTPI-2
 OpenBabel08302521313D

 32 33  0  0  0  0  0  0  0  0999 V2000
    1.0927    0.1222    0.5329 S   0  0  0  0  0  0  0  0  0  0  0  0
    0.5913   -0.9512   -0.3016 O   0  0  0  0  0  0  0  0  0  0  0  0
    0.7035    0.2264    1.9208 O   0  0  0  0  0  0  0  0  0  0  0  0
    2.4118    2.6306   -1.9873 O   0  0  0  0  0  0  0  0  0  0  0  0
    4.0414    3.7080   -0.8600 O   0  0  0  0  0  0  0  0  0  0  0  0
    5.1565    2.9238    2.3878 O   0  5  0  0  0  0  0  0  0  0  0  0
    7.0214    1.9679    1.7306 O   0  0  0  0  0  0  0  0  0  0  0  0
    0.6051    1.5511   -0.2902 N   0  0  0  0  0  0  0  0  0  0  0  0
    5.7852    2.0395    1.7864 N   0  3  0  0  0  0  0  0  0  0  0  0
    2.8677    0.0821    0.4570 C   0  0  0  0  0  0  0  0  0  0  0  0
    0.7807    2.8104    0.3915 C   0  0  0  0  0  0  0  0  0  0  0  0
    3.6081    1.0052    1.2010 C   0  0  0  0  0  0  0  0  0  0  0  0
    3.5196   -0.9230   -0.2687 C   0  0  0  0  0  0  0  0  0  0  0  0
    1.8677    3.6516    0.0988 C   0  0  0  0  0  0  0  0  0  0  0  0
    5.0073    0.9889    1.1159 C   0  0  0  0  0  0  0  0  0  0  0  0
   -0.1426    3.1927    1.3720 C   0  0  0  0  0  0  0  0  0  0  0  0
    4.9176   -0.9754   -0.2875 C   0  0  0  0  0  0  0  0  0  0  0  0
    5.6668   -0.0084    0.3857 C   0  0  0  0  0  0  0  0  0  0  0  0
    2.0386    4.8440    0.8168 C   0  0  0  0  0  0  0  0  0  0  0  0
    0.0198    4.3988    2.0602 C   0  0  0  0  0  0  0  0  0  0  0  0
    1.1121    5.2199    1.7890 C   0  0  0  0  0  0  0  0  0  0  0  0
    2.8834    3.3412   -0.9391 C   0  0  0  0  0  0  0  0  0  0  0  0
    1.4850    2.3369   -1.8709 H   0  0  0  0  0  0  0  0  0  0  0  0
   -0.3599    1.3699   -0.5893 H   0  0  0  0  0  0  0  0  0  0  0  0
    3.1039    1.7380    1.8257 H   0  0  0  0  0  0  0  0  0  0  0  0
    2.9552   -1.6811   -0.8087 H   0  0  0  0  0  0  0  0  0  0  0  0
   -0.9888    2.5575    1.6239 H   0  0  0  0  0  0  0  0  0  0  0  0
    5.4259   -1.7670   -0.8367 H   0  0  0  0  0  0  0  0  0  0  0  0
    6.7535   -0.0449    0.3340 H   0  0  0  0  0  0  0  0  0  0  0  0
    2.8966    5.4869    0.6181 H   0  0  0  0  0  0  0  0  0  0  0  0
   -0.7016    4.6945    2.8206 H   0  0  0  0  0  0  0  0  0  0  0  0
    1.2467    6.1514    2.3361 H   0  0  0  0  0  0  0  0  0  0  0  0
  1  2  2  0  0  0  0
  1  3  2  0  0  0  0
  1  8  1  0  0  0  0
  1 10  1  0  0  0  0
  4 22  1  0  0  0  0
  4 23  1  0  0  0  0
  5 22  2  0  0  0  0
  6  9  1  0  0  0  0
  7  9  2  0  0  0  0
  8 11  1  0  0  0  0
  8 24  1  0  0  0  0
  9 15  1  0  0  0  0
 10 12  2  0  0  0  0
 10 13  1  0  0  0  0
 11 14  2  0  0  0  0
 11 16  1  0  0  0  0
 12 15  1  0  0  0  0
 12 25  1  0  0  0  0
 13 17  2  0  0  0  0
 13 26  1  0  0  0  0
 14 19  1  0  0  0  0
 14 22  1  0  0  0  0
 15 18  2  0  0  0  0
 16 20  2  0  0  0  0
 16 27  1  0  0  0  0
 17 18  1  0  0  0  0
 17 28  1  0  0  0  0
 18 29  1  0  0  0  0
 19 21  2  0  0  0  0
 19 30  1  0  0  0  0
 20 21  1  0  0  0  0
 20 31  1  0  0  0  0
 21 32  1  0  0  0  0
M  CHG  2   6  -1   9   1
M  END
>  <Mol_ID>
5761

>  <Formula>
C13H9ClN2O6S

>  <MolWeight>
356.73836

>  <Cat>
S2968

>  <Name>
CTPI-2

>  <Synonyms>
N/A

>  <Target>
Mitochondrial Metabolism

>  <Form>
Free Base

>  <CAS>
68003-38-3

>  <URL>
http://www.selleckchem.com/products/ctpi-2.html

$$$$
