CU-CPD107
 OpenBabel08302521323D

 42 43  0  0  0  0  0  0  0  0999 V2000
    1.2721   -0.6212    0.3320 I   0  0  0  0  0  0  0  0  0  0  0  0
    4.9426    3.7381   -1.7382 O   0  0  0  0  0  0  0  0  0  0  0  0
    7.4756   -0.4838    0.9810 O   0  0  0  0  0  0  0  0  0  0  0  0
    5.0877    1.0987   -0.1420 N   0  0  0  0  0  0  0  0  0  0  0  0
    4.1946   -0.9342    0.0033 N   0  0  0  0  0  0  0  0  0  0  0  0
    6.1483    3.0105   -1.5285 C   0  0  0  0  0  0  0  0  0  0  0  0
    6.1287    2.1164   -0.2571 C   0  0  0  0  0  0  0  0  0  0  0  0
    3.7131    1.2974    0.0558 C   0  0  0  0  0  0  0  0  0  0  0  0
    5.3253   -0.2708   -0.0849 C   0  0  0  0  0  0  0  0  0  0  0  0
    7.2154    4.0994   -1.3468 C   0  0  0  0  0  0  0  0  0  0  0  0
    6.4260    2.2034   -2.7946 C   0  0  0  0  0  0  0  0  0  0  0  0
    3.2097    0.0029    0.0946 C   0  0  0  0  0  0  0  0  0  0  0  0
    3.0104    2.5946    0.1353 C   0  0  0  0  0  0  0  0  0  0  0  0
    6.6620   -0.9478   -0.1004 C   0  0  0  0  0  0  0  0  0  0  0  0
    1.8500    2.8214   -0.6281 C   0  0  0  0  0  0  0  0  0  0  0  0
    3.4897    3.6611    0.9140 C   0  0  0  0  0  0  0  0  0  0  0  0
    1.1975    4.0516   -0.6139 C   0  0  0  0  0  0  0  0  0  0  0  0
    2.8705    4.9155    0.8819 C   0  0  0  0  0  0  0  0  0  0  0  0
    7.0302   -0.9386    2.2607 C   0  0  0  0  0  0  0  0  0  0  0  0
    1.7183    5.1088    0.1258 C   0  0  0  0  0  0  0  0  0  0  0  0
    8.0899   -0.5815    3.2898 C   0  0  0  0  0  0  0  0  0  0  0  0
    4.2408    3.1182   -2.0031 H   0  0  0  0  0  0  0  0  0  0  0  0
    6.0708    2.7191    0.6527 H   0  0  0  0  0  0  0  0  0  0  0  0
    7.0979    1.6127   -0.2008 H   0  0  0  0  0  0  0  0  0  0  0  0
    8.2248    3.6831   -1.2839 H   0  0  0  0  0  0  0  0  0  0  0  0
    7.1819    4.8209   -2.1725 H   0  0  0  0  0  0  0  0  0  0  0  0
    7.0231    4.6791   -0.4350 H   0  0  0  0  0  0  0  0  0  0  0  0
    7.4295    1.7676   -2.7848 H   0  0  0  0  0  0  0  0  0  0  0  0
    5.6967    1.3953   -2.9120 H   0  0  0  0  0  0  0  0  0  0  0  0
    6.3269    2.8367   -3.6842 H   0  0  0  0  0  0  0  0  0  0  0  0
    6.5484   -2.0371   -0.0375 H   0  0  0  0  0  0  0  0  0  0  0  0
    7.1818   -0.7269   -1.0384 H   0  0  0  0  0  0  0  0  0  0  0  0
    1.4433    2.0356   -1.2660 H   0  0  0  0  0  0  0  0  0  0  0  0
    4.3723    3.5491    1.5333 H   0  0  0  0  0  0  0  0  0  0  0  0
    0.2929    4.1932   -1.1973 H   0  0  0  0  0  0  0  0  0  0  0  0
    3.2999    5.7458    1.4363 H   0  0  0  0  0  0  0  0  0  0  0  0
    6.0929   -0.4341    2.5165 H   0  0  0  0  0  0  0  0  0  0  0  0
    6.8645   -2.0222    2.2558 H   0  0  0  0  0  0  0  0  0  0  0  0
    1.2339    6.0789    0.1084 H   0  0  0  0  0  0  0  0  0  0  0  0
    8.6877    0.2809    2.9784 H   0  0  0  0  0  0  0  0  0  0  0  0
    7.6316   -0.3675    4.2601 H   0  0  0  0  0  0  0  0  0  0  0  0
    8.7776   -1.4223    3.4313 H   0  0  0  0  0  0  0  0  0  0  0  0
  1 12  1  0  0  0  0
  2  6  1  0  0  0  0
  2 22  1  0  0  0  0
  3 14  1  0  0  0  0
  3 19  1  0  0  0  0
  4  7  1  0  0  0  0
  4  8  1  0  0  0  0
  4  9  1  0  0  0  0
  5  9  2  0  0  0  0
  5 12  1  0  0  0  0
  6  7  1  0  0  0  0
  6 10  1  0  0  0  0
  6 11  1  0  0  0  0
  7 23  1  0  0  0  0
  7 24  1  0  0  0  0
  8 12  2  0  0  0  0
  8 13  1  0  0  0  0
  9 14  1  0  0  0  0
 10 25  1  0  0  0  0
 10 26  1  0  0  0  0
 10 27  1  0  0  0  0
 11 28  1  0  0  0  0
 11 29  1  0  0  0  0
 11 30  1  0  0  0  0
 13 15  2  0  0  0  0
 13 16  1  0  0  0  0
 14 31  1  0  0  0  0
 14 32  1  0  0  0  0
 15 17  1  0  0  0  0
 15 33  1  0  0  0  0
 16 18  2  0  0  0  0
 16 34  1  0  0  0  0
 17 20  2  0  0  0  0
 17 35  1  0  0  0  0
 18 20  1  0  0  0  0
 18 36  1  0  0  0  0
 19 21  1  0  0  0  0
 19 37  1  0  0  0  0
 19 38  1  0  0  0  0
 20 39  1  0  0  0  0
 21 40  1  0  0  0  0
 21 41  1  0  0  0  0
 21 42  1  0  0  0  0
M  END
>  <Mol_ID>
6107

>  <Formula>
C16H21IN2O2

>  <MolWeight>
400.25461

>  <Cat>
S9937

>  <Name>
CU-CPD107

>  <Target>
TLR

>  <Form>
free base

>  <CAS>
2573912-32-8

>  <URL>
http://www.selleckchem.com/products/cu-cpd107.html

$$$$
