Curcumin.cdx
 OpenBabel08302521433D

 47 48  0  0  0  0  0  0  0  0999 V2000
    0.7902   -0.2235    0.5181 C   0  0  0  0  0  0  0  0  0  0  0  0
    0.1363   -1.2730   -0.1325 C   0  0  0  0  0  0  0  0  0  0  0  0
   -1.1092   -1.0523   -0.7305 C   0  0  0  0  0  0  0  0  0  0  0  0
   -1.7119    0.2071   -0.6953 C   0  0  0  0  0  0  0  0  0  0  0  0
   -1.0709    1.2814   -0.0740 C   0  0  0  0  0  0  0  0  0  0  0  0
    0.1668    1.0429    0.5382 C   0  0  0  0  0  0  0  0  0  0  0  0
    1.9903   -0.1868    1.1690 O   0  0  0  0  0  0  0  0  0  0  0  0
    2.8136   -1.3297    1.2713 C   0  0  0  0  0  0  0  0  0  0  0  0
    0.5737   -2.5573   -0.2756 O   0  0  0  0  0  0  0  0  0  0  0  0
   -1.7493    2.5886   -0.0387 C   0  0  0  0  0  0  0  0  0  0  0  0
   -1.1500    3.7936   -0.0058 C   0  0  0  0  0  0  0  0  0  0  0  0
   -1.9997    5.0244   -0.0021 C   0  0  0  0  0  0  0  0  0  0  0  0
   -1.2519    6.3204    0.0265 C   0  0  0  0  0  0  0  0  0  0  0  0
   -1.8462    7.5280    0.0728 C   0  0  0  0  0  0  0  0  0  0  0  0
   -1.0808    8.7699    0.0648 C   0  0  0  0  0  0  0  0  0  0  0  0
   -1.4692    9.9488    0.5858 C   0  0  0  0  0  0  0  0  0  0  0  0
   -0.6743   11.1974    0.5471 C   0  0  0  0  0  0  0  0  0  0  0  0
   -3.2241    4.9415   -0.0308 O   0  0  0  0  0  0  0  0  0  0  0  0
   -3.2160    7.6540    0.0665 O   0  0  0  0  0  0  0  0  0  0  0  0
    0.2124   11.4813   -0.4968 C   0  0  0  0  0  0  0  0  0  0  0  0
    0.9132   12.6910   -0.5290 C   0  0  0  0  0  0  0  0  0  0  0  0
    0.7294   13.6445    0.4755 C   0  0  0  0  0  0  0  0  0  0  0  0
   -0.1583   13.3953    1.5273 C   0  0  0  0  0  0  0  0  0  0  0  0
   -0.8540   12.1693    1.5428 C   0  0  0  0  0  0  0  0  0  0  0  0
    1.4309   14.8145    0.3868 O   0  0  0  0  0  0  0  0  0  0  0  0
   -0.4627   14.2085    2.5869 O   0  0  0  0  0  0  0  0  0  0  0  0
    0.1739   15.4767    2.6643 C   0  0  0  0  0  0  0  0  0  0  0  0
   -1.6181   -1.8749   -1.2282 H   0  0  0  0  0  0  0  0  0  0  0  0
   -2.6839    0.3354   -1.1678 H   0  0  0  0  0  0  0  0  0  0  0  0
    0.6736    1.8511    1.0615 H   0  0  0  0  0  0  0  0  0  0  0  0
    2.3409   -2.0948    1.8950 H   0  0  0  0  0  0  0  0  0  0  0  0
    3.0922   -1.7124    0.2850 H   0  0  0  0  0  0  0  0  0  0  0  0
    3.7379   -1.0308    1.7755 H   0  0  0  0  0  0  0  0  0  0  0  0
    1.3239   -2.7311    0.3001 H   0  0  0  0  0  0  0  0  0  0  0  0
   -2.8372    2.5376   -0.0665 H   0  0  0  0  0  0  0  0  0  0  0  0
   -0.0749    3.9089   -0.0004 H   0  0  0  0  0  0  0  0  0  0  0  0
   -0.1709    6.2471    0.0283 H   0  0  0  0  0  0  0  0  0  0  0  0
   -0.0947    8.6927   -0.3906 H   0  0  0  0  0  0  0  0  0  0  0  0
   -2.4198   10.0371    1.1111 H   0  0  0  0  0  0  0  0  0  0  0  0
   -3.4708    8.5803   -0.0579 H   0  0  0  0  0  0  0  0  0  0  0  0
    0.3612   10.7788   -1.3100 H   0  0  0  0  0  0  0  0  0  0  0  0
    1.5932   12.8732   -1.3561 H   0  0  0  0  0  0  0  0  0  0  0  0
   -1.5482   11.9884    2.3651 H   0  0  0  0  0  0  0  0  0  0  0  0
    1.9724   14.8057   -0.4188 H   0  0  0  0  0  0  0  0  0  0  0  0
    1.2615   15.3754    2.7483 H   0  0  0  0  0  0  0  0  0  0  0  0
   -0.1157   16.1187    1.8262 H   0  0  0  0  0  0  0  0  0  0  0  0
   -0.1700   15.9683    3.5803 H   0  0  0  0  0  0  0  0  0  0  0  0
  1  2  2  0  0  0  0
  1  7  1  0  0  0  0
  2  3  1  0  0  0  0
  2  9  1  0  0  0  0
  3  4  2  0  0  0  0
  3 28  1  0  0  0  0
  4  5  1  0  0  0  0
  4 29  1  0  0  0  0
  5  6  2  0  0  0  0
  5 10  1  0  0  0  0
  6  1  1  0  0  0  0
  6 30  1  0  0  0  0
  7  8  1  0  0  0  0
  8 31  1  0  0  0  0
  8 32  1  0  0  0  0
  8 33  1  0  0  0  0
  9 34  1  0  0  0  0
 10 11  2  0  0  0  0
 10 35  1  0  0  0  0
 11 12  1  0  0  0  0
 11 36  1  0  0  0  0
 12 13  1  0  0  0  0
 12 18  2  0  0  0  0
 13 14  2  0  0  0  0
 13 37  1  0  0  0  0
 14 15  1  0  0  0  0
 14 19  1  0  0  0  0
 15 16  2  0  0  0  0
 15 38  1  0  0  0  0
 16 17  1  0  0  0  0
 16 39  1  0  0  0  0
 17 20  2  0  0  0  0
 19 40  1  0  0  0  0
 20 21  1  0  0  0  0
 20 41  1  0  0  0  0
 21 22  2  0  0  0  0
 21 42  1  0  0  0  0
 22 23  1  0  0  0  0
 22 25  1  0  0  0  0
 23 24  2  0  0  0  0
 23 26  1  0  0  0  0
 24 17  1  0  0  0  0
 24 43  1  0  0  0  0
 25 44  1  0  0  0  0
 26 27  1  0  0  0  0
 27 45  1  0  0  0  0
 27 46  1  0  0  0  0
 27 47  1  0  0  0  0
M  END
>  <Mol_ID>
855

>  <Formula>
C21H20O6

>  <MolWeight>
368.3799

>  <Cat>
S1848

>  <Name>
Curcumin

>  <Synonyms>
Diferuloylmethane, Natural Yellow 3, Turmeric yellow

>  <Target>
Apoptosis related,Autophagy,Epigenetic Reader Domain,Ferroptosis,HCV,HDAC,Histone Acetyltransferase,HIV,Influenza Virus,NF-¦ÊB,Nrf2

>  <Form>
free base

>  <CAS>
458-37-7

>  <URL>
http://selleckchem.com/products/Curcumin.html

$$$$
