Cyclo(Ala-Gly)
 OpenBabel08302521373D

 17 17  0  0  1  0  0  0  0  0999 V2000
   -1.5467   -2.0169    0.1517 C   0  0  0  0  0  0  0  0  0  0  0  0
   -2.4556    0.7306    0.0339 O   0  0  0  0  0  0  0  0  0  0  0  0
    2.8209   -0.2681    0.0882 O   0  0  0  0  0  0  0  0  0  0  0  0
   -0.6441   -0.8848   -0.3196 C   0  0  1  0  0  0  0  0  0  0  0  0
   -1.2556    0.4819    0.0614 C   0  0  0  0  0  0  0  0  0  0  0  0
    0.6974   -1.0415    0.2364 N   0  0  0  0  0  0  0  0  0  0  0  0
   -0.3455    1.4798    0.3220 N   0  0  0  0  0  0  0  0  0  0  0  0
    1.6181   -0.0275    0.1078 C   0  0  0  0  0  0  0  0  0  0  0  0
    1.0332    1.3688   -0.1212 C   0  0  0  0  0  0  0  0  0  0  0  0
   -2.5544   -1.9259   -0.2666 H   0  0  0  0  0  0  0  0  0  0  0  0
   -1.1413   -2.9905   -0.1439 H   0  0  0  0  0  0  0  0  0  0  0  0
   -1.6386   -2.0138    1.2439 H   0  0  0  0  0  0  0  0  0  0  0  0
   -0.5501   -0.9080   -1.4115 H   0  0  0  0  0  0  0  0  0  0  0  0
    1.1226   -1.9607    0.2283 H   0  0  0  0  0  0  0  0  0  0  0  0
   -0.7582    2.3976    0.4356 H   0  0  0  0  0  0  0  0  0  0  0  0
    1.6156    2.0931    0.4545 H   0  0  0  0  0  0  0  0  0  0  0  0
    1.0788    1.6090   -1.1871 H   0  0  0  0  0  0  0  0  0  0  0  0
  1 10  1  0  0  0  0
  1 11  1  0  0  0  0
  1 12  1  0  0  0  0
  2  5  2  0  0  0  0
  3  8  2  0  0  0  0
  4  1  1  0  0  0  0
  4  5  1  0  0  0  0
  4  6  1  0  0  0  0
  4 13  1  6  0  0  0
  5  7  1  0  0  0  0
  6  8  1  0  0  0  0
  6 14  1  0  0  0  0
  7  9  1  0  0  0  0
  7 15  1  0  0  0  0
  8  9  1  0  0  0  0
  9 16  1  0  0  0  0
  9 17  1  0  0  0  0
M  END
>  <Mol_ID>
7431

>  <Formula>
C5H8N2O2

>  <MolWeight>
128.12922

>  <Cat>
E4531

>  <Name>
Cyclo(Ala-Gly)

>  <Target>
Others

>  <Form>
Free base

>  <CAS>
4526-77-6

>  <URL>
https://www.selleckchem.com/products/cyclo-ala-gly.html

$$$$
