Cyclamic acid.cdx
 OpenBabel08302520003D

 24 24  0  0  0  0  0  0  0  0999 V2000
   -1.3689    0.4248   -0.1629 C   0  0  0  0  0  0  0  0  0  0  0  0
   -1.5026    0.5646   -1.6327 N   0  0  0  0  0  0  0  0  0  0  0  0
   -1.0028   -1.0395    0.1475 C   0  0  0  0  0  0  0  0  0  0  0  0
   -0.3165    1.3487    0.4533 C   0  0  0  0  0  0  0  0  0  0  0  0
   -1.9957    2.0062   -2.3134 S   0  0  0  0  0  0  0  0  0  0  0  0
    0.4284   -1.4037   -0.2649 C   0  0  0  0  0  0  0  0  0  0  0  0
    1.0890    1.0341   -0.0505 C   0  0  0  0  0  0  0  0  0  0  0  0
   -3.4038    2.3000   -1.6074 O   0  0  0  0  0  0  0  0  0  0  0  0
   -1.0703    3.0473   -1.9472 O   0  0  0  0  0  0  0  0  0  0  0  0
   -2.2995    1.7260   -3.6968 O   0  0  0  0  0  0  0  0  0  0  0  0
    1.4638   -0.4114    0.2601 C   0  0  0  0  0  0  0  0  0  0  0  0
   -2.3469    0.6327    0.2875 H   0  0  0  0  0  0  0  0  0  0  0  0
   -0.7210    0.1928   -2.1696 H   0  0  0  0  0  0  0  0  0  0  0  0
   -1.1064   -1.2081    1.2275 H   0  0  0  0  0  0  0  0  0  0  0  0
   -1.7050   -1.7225   -0.3459 H   0  0  0  0  0  0  0  0  0  0  0  0
   -0.5527    2.4019    0.2853 H   0  0  0  0  0  0  0  0  0  0  0  0
   -0.3333    1.2197    1.5443 H   0  0  0  0  0  0  0  0  0  0  0  0
    0.6693   -2.4077    0.1040 H   0  0  0  0  0  0  0  0  0  0  0  0
    0.4967   -1.4525   -1.3580 H   0  0  0  0  0  0  0  0  0  0  0  0
    1.8091    1.7108    0.4226 H   0  0  0  0  0  0  0  0  0  0  0  0
    1.1529    1.2109   -1.1306 H   0  0  0  0  0  0  0  0  0  0  0  0
   -4.0819    2.2754   -2.3144 H   0  0  0  0  0  0  0  0  0  0  0  0
    1.5603   -0.5317    1.3461 H   0  0  0  0  0  0  0  0  0  0  0  0
    2.4451   -0.6381   -0.1722 H   0  0  0  0  0  0  0  0  0  0  0  0
  1  2  1  0  0  0  0
  1  3  1  0  0  0  0
  1  4  1  0  0  0  0
  1 12  1  0  0  0  0
  2  5  1  0  0  0  0
  2 13  1  0  0  0  0
  3  6  1  0  0  0  0
  3 14  1  0  0  0  0
  3 15  1  0  0  0  0
  4  7  1  0  0  0  0
  4 16  1  0  0  0  0
  4 17  1  0  0  0  0
  5  8  1  0  0  0  0
  5  9  2  0  0  0  0
  5 10  2  0  0  0  0
  6 11  1  0  0  0  0
  6 18  1  0  0  0  0
  6 19  1  0  0  0  0
  7 11  1  0  0  0  0
  7 20  1  0  0  0  0
  7 21  1  0  0  0  0
  8 22  1  0  0  0  0
 11 23  1  0  0  0  0
 11 24  1  0  0  0  0
M  END
>  <Mol_ID>
274

>  <Formula>
C6H13NO3S

>  <MolWeight>
179.23732

>  <Cat>
S4015

>  <Name>
Cyclamic  acid

>  <Synonyms>
NSC 220327

>  <Target>
Others

>  <Form>
free base

>  <CAS>
100-88-9

>  <URL>
http://selleckchem.com/products/cyclamic-acid.html

$$$$
