Cyclic Pifithrin-¦Á hydrobromide
 OpenBabel08302520353D

 37 39  0  0  0  0  0  0  0  0999 V2000
    0.2223    2.0790   -0.3187 S   0  0  0  0  0  0  0  0  0  0  0  0
    1.5119    1.0087   -0.3689 C   0  0  0  0  0  0  0  0  0  0  0  0
    1.1655   -0.2648   -0.3410 N   0  0  0  0  0  0  0  0  0  0  0  0
   -0.1792   -0.4515   -0.2761 C   0  0  0  0  0  0  0  0  0  0  0  0
   -0.8714    0.7715   -0.2737 C   0  0  0  0  0  0  0  0  0  0  0  0
   -0.8914   -1.7756   -0.1693 C   0  0  0  0  0  0  0  0  0  0  0  0
   -2.3452   -1.5735    0.3375 C   0  0  0  0  0  0  0  0  0  0  0  0
   -3.0493   -0.4568   -0.4423 C   0  0  0  0  0  0  0  0  0  0  0  0
   -2.3612    0.8987   -0.1931 C   0  0  0  0  0  0  0  0  0  0  0  0
    2.8302    1.2256   -0.3857 N   0  0  0  0  0  0  0  0  0  0  0  0
    3.3591   -0.0280   -0.3700 C   0  0  0  0  0  0  0  0  0  0  0  0
    2.3104   -0.9775   -0.3569 C   0  0  0  0  0  0  0  0  0  0  0  0
    4.8319   -0.2434   -0.3512 C   0  0  0  0  0  0  0  0  0  0  0  0
    5.6712    0.8826   -0.2463 C   0  0  0  0  0  0  0  0  0  0  0  0
    7.0586    0.7502   -0.2231 C   0  0  0  0  0  0  0  0  0  0  0  0
    7.6489   -0.5151   -0.3099 C   0  0  0  0  0  0  0  0  0  0  0  0
    6.8257   -1.6502   -0.4074 C   0  0  0  0  0  0  0  0  0  0  0  0
    5.4254   -1.5193   -0.4230 C   0  0  0  0  0  0  0  0  0  0  0  0
    9.1457   -0.6531   -0.3046 C   0  0  0  0  0  0  0  0  0  0  0  0
    1.1648    0.0539    3.1051 Br  0  0  0  0  0  0  0  0  0  0  0  0
   -0.3796   -2.4430    0.5540 H   0  0  0  0  0  0  0  0  0  0  0  0
   -0.8816   -2.2552   -1.1699 H   0  0  0  0  0  0  0  0  0  0  0  0
   -2.3357   -1.2862    1.4130 H   0  0  0  0  0  0  0  0  0  0  0  0
   -2.9038   -2.5303    0.2429 H   0  0  0  0  0  0  0  0  0  0  0  0
   -3.0065   -0.7116   -1.5236 H   0  0  0  0  0  0  0  0  0  0  0  0
   -4.1184   -0.3701   -0.1488 H   0  0  0  0  0  0  0  0  0  0  0  0
   -2.7395    1.6218   -0.9456 H   0  0  0  0  0  0  0  0  0  0  0  0
   -2.5981    1.2847    0.8215 H   0  0  0  0  0  0  0  0  0  0  0  0
    2.3832   -2.0576   -0.3269 H   0  0  0  0  0  0  0  0  0  0  0  0
    5.2554    1.8796   -0.1777 H   0  0  0  0  0  0  0  0  0  0  0  0
    7.6706    1.6407   -0.1409 H   0  0  0  0  0  0  0  0  0  0  0  0
    7.2730   -2.6348   -0.4730 H   0  0  0  0  0  0  0  0  0  0  0  0
    4.8169   -2.4102   -0.5003 H   0  0  0  0  0  0  0  0  0  0  0  0
    9.4693   -1.2823    0.5505 H   0  0  0  0  0  0  0  0  0  0  0  0
    9.4807   -1.1231   -1.2528 H   0  0  0  0  0  0  0  0  0  0  0  0
    9.6465    0.3364   -0.2161 H   0  0  0  0  0  0  0  0  0  0  0  0
    2.1189    0.9899    2.3619 H   0  0  0  0  0  0  0  0  0  0  0  0
  1  2  1  0  0  0  0
  1  5  1  0  0  0  0
  2  3  1  0  0  0  0
  2 10  2  0  0  0  0
  3  4  1  0  0  0  0
  3 12  1  0  0  0  0
  4  5  2  0  0  0  0
  4  6  1  0  0  0  0
  5  9  1  0  0  0  0
  6  7  1  0  0  0  0
  6 21  1  0  0  0  0
  6 22  1  0  0  0  0
  7  8  1  0  0  0  0
  7 23  1  0  0  0  0
  7 24  1  0  0  0  0
  8  9  1  0  0  0  0
  8 25  1  0  0  0  0
  8 26  1  0  0  0  0
  9 27  1  0  0  0  0
  9 28  1  0  0  0  0
 10 11  1  0  0  0  0
 11 12  2  0  0  0  0
 11 13  1  0  0  0  0
 12 29  1  0  0  0  0
 13 14  2  0  0  0  0
 13 18  1  0  0  0  0
 14 15  1  0  0  0  0
 14 30  1  0  0  0  0
 15 16  2  0  0  0  0
 15 31  1  0  0  0  0
 16 17  1  0  0  0  0
 16 19  1  0  0  0  0
 17 18  2  0  0  0  0
 17 32  1  0  0  0  0
 18 33  1  0  0  0  0
 19 34  1  0  0  0  0
 19 35  1  0  0  0  0
 19 36  1  0  0  0  0
 20 37  1  0  0  0  0
M  END
>  <Mol_ID>
3424

>  <Formula>
C16H17BrN2S

>  <MolWeight>
349.28858

>  <Cat>
S5791

>  <Name>
Cyclic Pifithrin-¦Á hydrobromide

>  <Synonyms>
N/A

>  <Target>
p53

>  <Form>
hydrobromide

>  <CAS>
511296-88-1

>  <URL>
http://www.selleckchem.com/products/cyclic-pifithrin-hydrobromide.html

$$$$
