Cyclobenzaprine HCl.cdx
 OpenBabel08302522063D

 42 44  0  0  0  0  0  0  0  0999 V2000
    1.6108    0.8465   -0.0153 C   0  0  0  0  0  0  0  0  0  0  0  0
    1.3275   -0.4689   -0.4468 C   0  0  0  0  0  0  0  0  0  0  0  0
    0.0765   -0.7393   -1.1788 C   0  0  0  0  0  0  0  0  0  0  0  0
   -1.2193   -0.4528   -0.5170 C   0  0  0  0  0  0  0  0  0  0  0  0
   -1.5105    0.8522   -0.0724 C   0  0  0  0  0  0  0  0  0  0  0  0
   -0.6159    1.9989   -0.3218 C   0  0  0  0  0  0  0  0  0  0  0  0
    0.7281    1.9965   -0.2999 C   0  0  0  0  0  0  0  0  0  0  0  0
   -2.1079   -1.5053   -0.2436 C   0  0  0  0  0  0  0  0  0  0  0  0
   -3.2888   -1.2653    0.4563 C   0  0  0  0  0  0  0  0  0  0  0  0
   -3.5967    0.0266    0.8750 C   0  0  0  0  0  0  0  0  0  0  0  0
   -2.7198    1.0804    0.6024 C   0  0  0  0  0  0  0  0  0  0  0  0
    2.7993    1.0804    0.6877 C   0  0  0  0  0  0  0  0  0  0  0  0
    3.6621    0.0283    1.0007 C   0  0  0  0  0  0  0  0  0  0  0  0
    3.3547   -1.2744    0.6104 C   0  0  0  0  0  0  0  0  0  0  0  0
    2.1897   -1.5222   -0.1127 C   0  0  0  0  0  0  0  0  0  0  0  0
    0.0576   -1.0933   -2.4807 C   0  0  0  0  0  0  0  0  0  0  0  0
    1.2307   -1.3779   -3.3869 C   0  0  0  0  0  0  0  0  0  0  0  0
    1.0378   -2.7511   -4.0556 C   0  0  0  0  0  0  0  0  0  0  0  0
    2.1330   -3.1991   -4.9371 N   0  0  0  0  0  0  0  0  0  0  0  0
    1.8065   -4.5254   -5.4711 C   0  0  0  0  0  0  0  0  0  0  0  0
    2.3760   -2.2653   -6.0374 C   0  0  0  0  0  0  0  0  0  0  0  0
   -1.1245    2.9394   -0.5290 H   0  0  0  0  0  0  0  0  0  0  0  0
    1.2471    2.9339   -0.4912 H   0  0  0  0  0  0  0  0  0  0  0  0
   -1.8630   -2.5194   -0.5494 H   0  0  0  0  0  0  0  0  0  0  0  0
   -3.9603   -2.0881    0.6860 H   0  0  0  0  0  0  0  0  0  0  0  0
   -4.5144    0.2145    1.4259 H   0  0  0  0  0  0  0  0  0  0  0  0
   -2.9756    2.0796    0.9475 H   0  0  0  0  0  0  0  0  0  0  0  0
    3.0542    2.0829    1.0183 H   0  0  0  0  0  0  0  0  0  0  0  0
    4.5758    0.2217    1.5596 H   0  0  0  0  0  0  0  0  0  0  0  0
    4.0170   -2.0954    0.8693 H   0  0  0  0  0  0  0  0  0  0  0  0
    1.9470   -2.5409   -0.4066 H   0  0  0  0  0  0  0  0  0  0  0  0
   -0.9104   -1.1665   -2.9770 H   0  0  0  0  0  0  0  0  0  0  0  0
    1.2650   -0.5862   -4.1482 H   0  0  0  0  0  0  0  0  0  0  0  0
    2.1884   -1.3544   -2.8615 H   0  0  0  0  0  0  0  0  0  0  0  0
    0.9250   -3.4932   -3.2528 H   0  0  0  0  0  0  0  0  0  0  0  0
    0.0907   -2.7458   -4.6142 H   0  0  0  0  0  0  0  0  0  0  0  0
    0.8956   -4.5110   -6.0816 H   0  0  0  0  0  0  0  0  0  0  0  0
    2.6277   -4.9101   -6.0856 H   0  0  0  0  0  0  0  0  0  0  0  0
    1.6633   -5.2443   -4.6563 H   0  0  0  0  0  0  0  0  0  0  0  0
    1.4529   -1.9874   -6.5591 H   0  0  0  0  0  0  0  0  0  0  0  0
    2.8612   -1.3553   -5.6698 H   0  0  0  0  0  0  0  0  0  0  0  0
    3.0637   -2.6973   -6.7742 H   0  0  0  0  0  0  0  0  0  0  0  0
  1  2  2  0  0  0  0
  1 12  1  0  0  0  0
  2  3  1  0  0  0  0
  3  4  1  0  0  0  0
  3 16  2  3  0  0  0
  4  5  2  0  0  0  0
  4  8  1  0  0  0  0
  5  6  1  0  0  0  0
  6  7  2  0  0  0  0
  6 22  1  0  0  0  0
  7  1  1  0  0  0  0
  7 23  1  0  0  0  0
  8  9  2  0  0  0  0
  8 24  1  0  0  0  0
  9 10  1  0  0  0  0
  9 25  1  0  0  0  0
 10 11  2  0  0  0  0
 10 26  1  0  0  0  0
 11  5  1  0  0  0  0
 11 27  1  0  0  0  0
 12 13  2  0  0  0  0
 12 28  1  0  0  0  0
 13 14  1  0  0  0  0
 13 29  1  0  0  0  0
 14 15  2  0  0  0  0
 14 30  1  0  0  0  0
 15  2  1  0  0  0  0
 15 31  1  0  0  0  0
 16 17  1  0  0  0  0
 16 32  1  0  0  0  0
 17 18  1  0  0  0  0
 17 33  1  0  0  0  0
 17 34  1  0  0  0  0
 18 19  1  0  0  0  0
 18 35  1  0  0  0  0
 18 36  1  0  0  0  0
 19 20  1  0  0  0  0
 19 21  1  0  0  0  0
 20 37  1  0  0  0  0
 20 38  1  0  0  0  0
 20 39  1  0  0  0  0
 21 40  1  0  0  0  0
 21 41  1  0  0  0  0
 21 42  1  0  0  0  0
M  END
>  <Mol_ID>
1424

>  <Formula>
C20H22ClN

>  <MolWeight>
311.84838

>  <Cat>
S4283

>  <Name>
Cyclobenzaprine HCl

>  <Synonyms>
Cyclobenzaprine hydrochloride

>  <Target>
5-HT Receptor

>  <Form>
Hydrochloride

>  <CAS>
6202-23-9

>  <URL>
http://selleckchem.com/products/cyclobenzaprine-hci.html

$$$$
