Cynaropicrin
 OpenBabel08302521503D

 47 49  0  0  1  0  0  0  0  0999 V2000
    0.9435   -0.0023    0.0989 C   0  0  0  0  0  0  0  0  0  0  0  0
   -5.2656   -2.7474    1.7154 O   0  0  0  0  0  0  0  0  0  0  0  0
   -5.7969   -2.6878    0.4682 C   0  0  0  0  0  0  0  0  0  0  0  0
   -7.2554   -3.0053    0.5218 C   0  0  0  0  0  0  0  0  0  0  0  0
   -5.2083   -2.4038   -0.5591 O   0  0  0  0  0  0  0  0  0  0  0  0
   -7.9870   -2.8528    1.8185 C   0  0  0  0  0  0  0  0  0  0  0  0
   -7.8950   -3.3448   -0.6110 C   0  0  0  0  0  0  0  0  0  0  0  0
   -8.0067   -4.0897    2.5193 O   0  0  0  0  0  0  0  0  0  0  0  0
   -4.9649    0.3630    2.7902 C   0  0  0  0  0  0  0  0  0  0  0  0
   -2.5991    2.0359    3.0042 O   0  0  0  0  0  0  0  0  0  0  0  0
   -3.0360   -4.6382   -0.6776 C   0  0  0  0  0  0  0  0  0  0  0  0
    1.9930   -2.6291    1.0751 O   0  0  0  0  0  0  0  0  0  0  0  0
   -1.8119   -1.0304    1.5594 C   0  0  2  0  0  0  0  0  0  0  0  0
   -1.1751   -1.4050    0.2030 C   0  0  2  0  0  0  0  0  0  0  0  0
   -3.3387   -1.1406    1.4965 C   0  0  1  0  0  0  0  0  0  0  0  0
   -1.5392    0.3532    1.8670 O   0  0  0  0  0  0  0  0  0  0  0  0
   -1.3275   -2.8800   -0.2639 C   0  0  2  0  0  0  0  0  0  0  0  0
    0.3321   -1.1938    0.1434 C   0  0  0  0  0  0  0  0  0  0  0  0
   -3.8542   -2.5025    1.9894 C   0  0  2  0  0  0  0  0  0  0  0  0
   -3.7588    0.0436    2.3056 C   0  0  0  0  0  0  0  0  0  0  0  0
   -2.6024    0.9471    2.4638 C   0  0  0  0  0  0  0  0  0  0  0  0
   -2.4985   -3.7486    0.1760 C   0  0  0  0  0  0  0  0  0  0  0  0
   -0.0102   -3.5644    0.1209 C   0  0  0  0  0  0  0  0  0  0  0  0
    1.0648   -2.4971    0.0139 C   0  0  2  0  0  0  0  0  0  0  0  0
   -2.9780   -3.7106    1.6081 C   0  0  0  0  0  0  0  0  0  0  0  0
    0.3898    0.9297    0.1572 H   0  0  0  0  0  0  0  0  0  0  0  0
    2.0248    0.0685    0.0207 H   0  0  0  0  0  0  0  0  0  0  0  0
   -7.5415   -2.0889    2.4608 H   0  0  0  0  0  0  0  0  0  0  0  0
   -9.0262   -2.5484    1.6501 H   0  0  0  0  0  0  0  0  0  0  0  0
   -7.3831   -3.4328   -1.5643 H   0  0  0  0  0  0  0  0  0  0  0  0
   -8.9647   -3.5475   -0.6143 H   0  0  0  0  0  0  0  0  0  0  0  0
   -8.2619   -4.7814    1.8847 H   0  0  0  0  0  0  0  0  0  0  0  0
   -5.1229    1.2935    3.3316 H   0  0  0  0  0  0  0  0  0  0  0  0
   -5.8294   -0.2700    2.6335 H   0  0  0  0  0  0  0  0  0  0  0  0
   -2.6964   -4.7242   -1.7061 H   0  0  0  0  0  0  0  0  0  0  0  0
   -3.8403   -5.3035   -0.3766 H   0  0  0  0  0  0  0  0  0  0  0  0
    2.2295   -3.5683    1.1456 H   0  0  0  0  0  0  0  0  0  0  0  0
   -1.3687   -1.6156    2.3749 H   0  0  0  0  0  0  0  0  0  0  0  0
   -1.6196   -0.7540   -0.5635 H   0  0  0  0  0  0  0  0  0  0  0  0
   -3.6774   -0.9358    0.4754 H   0  0  0  0  0  0  0  0  0  0  0  0
   -1.3501   -2.8329   -1.3649 H   0  0  0  0  0  0  0  0  0  0  0  0
   -3.8329   -2.4799    3.0887 H   0  0  0  0  0  0  0  0  0  0  0  0
    0.2096   -4.3892   -0.5696 H   0  0  0  0  0  0  0  0  0  0  0  0
   -0.0415   -3.9992    1.1269 H   0  0  0  0  0  0  0  0  0  0  0  0
    1.5899   -2.5558   -0.9469 H   0  0  0  0  0  0  0  0  0  0  0  0
   -2.0955   -3.7362    2.2608 H   0  0  0  0  0  0  0  0  0  0  0  0
   -3.5283   -4.6308    1.8460 H   0  0  0  0  0  0  0  0  0  0  0  0
  1 18  2  0  0  0  0
  1 26  1  0  0  0  0
  1 27  1  0  0  0  0
  2  3  1  0  0  0  0
  3  4  1  0  0  0  0
  3  5  2  0  0  0  0
  4  6  1  0  0  0  0
  4  7  2  0  0  0  0
  6  8  1  0  0  0  0
  6 28  1  0  0  0  0
  6 29  1  0  0  0  0
  7 30  1  0  0  0  0
  7 31  1  0  0  0  0
  8 32  1  0  0  0  0
  9 20  2  0  0  0  0
  9 33  1  0  0  0  0
  9 34  1  0  0  0  0
 10 21  2  0  0  0  0
 11 22  2  0  0  0  0
 11 35  1  0  0  0  0
 11 36  1  0  0  0  0
 12 37  1  0  0  0  0
 13 14  1  0  0  0  0
 13 15  1  0  0  0  0
 13 16  1  0  0  0  0
 13 38  1  1  0  0  0
 14 17  1  0  0  0  0
 14 18  1  0  0  0  0
 14 39  1  6  0  0  0
 15 19  1  0  0  0  0
 15 20  1  0  0  0  0
 15 40  1  6  0  0  0
 16 21  1  0  0  0  0
 17 22  1  0  0  0  0
 17 23  1  0  0  0  0
 17 41  1  6  0  0  0
 18 24  1  0  0  0  0
 19  2  1  0  0  0  0
 19 25  1  0  0  0  0
 19 42  1  1  0  0  0
 20 21  1  0  0  0  0
 22 25  1  0  0  0  0
 23 24  1  0  0  0  0
 23 43  1  0  0  0  0
 23 44  1  0  0  0  0
 24 45  1  6  0  0  0
 24 12  1  0  0  0  0
 25 46  1  0  0  0  0
 25 47  1  0  0  0  0
M  END
>  <Mol_ID>
9885

>  <Formula>
C19H22O6

>  <MolWeight>
346.37438

>  <Cat>
E2791

>  <Name>
Cynaropicrin

>  <Synonyms>
NA

>  <Target>
TNF-¦Á, MMP13, NF-¦ÊB

>  <Form>
Free Base

>  <CAS>
35730-78-0

>  <URL>
https://www.selleckchem.com/products/cynaropicrin.html

$$$$
