Cyromazine.cdx
 OpenBabel08302522043D

 22 23  0  0  0  0  0  0  0  0999 V2000
    0.1453   -0.8758    0.2194 N   0  0  0  0  0  0  0  0  0  0  0  0
    1.2234   -0.1118    0.1829 C   0  0  0  0  0  0  0  0  0  0  0  0
    1.2207    1.1986    0.0237 N   0  0  0  0  0  0  0  0  0  0  0  0
    0.0205    1.7425   -0.0567 C   0  0  0  0  0  0  0  0  0  0  0  0
   -1.1264    1.0849    0.0160 N   0  0  0  0  0  0  0  0  0  0  0  0
   -1.0154   -0.2338    0.1424 C   0  0  0  0  0  0  0  0  0  0  0  0
   -2.2158   -0.9606    0.1954 N   0  0  0  0  0  0  0  0  0  0  0  0
   -2.2396   -2.3385   -0.2915 C   0  0  0  0  0  0  0  0  0  0  0  0
    2.4462   -0.7467    0.2800 N   0  0  0  0  0  0  0  0  0  0  0  0
   -0.0355    3.1170   -0.2119 N   0  0  0  0  0  0  0  0  0  0  0  0
   -2.6228   -2.6493   -1.7120 C   0  0  0  0  0  0  0  0  0  0  0  0
   -3.5299   -3.0530   -0.5872 C   0  0  0  0  0  0  0  0  0  0  0  0
   -2.9683   -0.3249   -0.0434 H   0  0  0  0  0  0  0  0  0  0  0  0
   -1.4618   -2.9527    0.1599 H   0  0  0  0  0  0  0  0  0  0  0  0
    2.3472   -1.7208    0.0280 H   0  0  0  0  0  0  0  0  0  0  0  0
    3.1590   -0.2142   -0.1976 H   0  0  0  0  0  0  0  0  0  0  0  0
    0.8157    3.5380    0.1293 H   0  0  0  0  0  0  0  0  0  0  0  0
   -0.9055    3.4785    0.1517 H   0  0  0  0  0  0  0  0  0  0  0  0
   -2.9475   -1.8383   -2.3530 H   0  0  0  0  0  0  0  0  0  0  0  0
   -2.0700   -3.4271   -2.2255 H   0  0  0  0  0  0  0  0  0  0  0  0
   -3.5876   -4.1078   -0.3408 H   0  0  0  0  0  0  0  0  0  0  0  0
   -4.4700   -2.5253   -0.4896 H   0  0  0  0  0  0  0  0  0  0  0  0
  1  2  2  0  0  0  0
  2  3  1  0  0  0  0
  2  9  1  0  0  0  0
  3  4  2  0  0  0  0
  4  5  1  0  0  0  0
  4 10  1  0  0  0  0
  5  6  2  0  0  0  0
  6  1  1  0  0  0  0
  6  7  1  0  0  0  0
  7  8  1  0  0  0  0
  7 13  1  0  0  0  0
  8 11  1  0  0  0  0
  8 14  1  0  0  0  0
  9 15  1  0  0  0  0
  9 16  1  0  0  0  0
 10 17  1  0  0  0  0
 10 18  1  0  0  0  0
 11 12  1  0  0  0  0
 11 19  1  0  0  0  0
 11 20  1  0  0  0  0
 12  8  1  0  0  0  0
 12 21  1  0  0  0  0
 12 22  1  0  0  0  0
M  END
>  <Mol_ID>
1281

>  <Formula>
C6H10N6

>  <MolWeight>
166.1838

>  <Cat>
S4167

>  <Name>
Cyromazine

>  <Synonyms>
Cyromazin,CGA-72662

>  <Target>
Parasite

>  <Form>
free base

>  <CAS>
66215-27-8

>  <URL>
http://selleckchem.com/products/cyromazine.html

$$$$
