Cysteamine HCl.cdx
 OpenBabel08302522053D

 11 10  0  0  0  0  0  0  0  0999 V2000
    0.9033    0.0774   -0.0027 C   0  0  0  0  0  0  0  0  0  0  0  0
    0.4301   -0.0122    1.4535 C   0  0  0  0  0  0  0  0  0  0  0  0
    1.0002    1.4002    2.4538 S   0  0  0  0  0  0  0  0  0  0  0  0
    0.4322    1.2753   -0.7006 N   0  0  0  0  0  0  0  0  0  0  0  0
    0.5472   -0.8034   -0.5483 H   0  0  0  0  0  0  0  0  0  0  0  0
    1.9984    0.0515   -0.0454 H   0  0  0  0  0  0  0  0  0  0  0  0
   -0.6637   -0.0436    1.4973 H   0  0  0  0  0  0  0  0  0  0  0  0
    0.8099   -0.9324    1.9091 H   0  0  0  0  0  0  0  0  0  0  0  0
    2.3136    1.2023    2.2638 H   0  0  0  0  0  0  0  0  0  0  0  0
   -0.5876    1.2948   -0.6906 H   0  0  0  0  0  0  0  0  0  0  0  0
    0.7136    2.0956   -0.1585 H   0  0  0  0  0  0  0  0  0  0  0  0
  1  2  1  0  0  0  0
  1  4  1  0  0  0  0
  1  5  1  0  0  0  0
  1  6  1  0  0  0  0
  2  3  1  0  0  0  0
  2  7  1  0  0  0  0
  2  8  1  0  0  0  0
  3  9  1  0  0  0  0
  4 10  1  0  0  0  0
  4 11  1  0  0  0  0
M  END
>  <Mol_ID>
1347

>  <Formula>
C2H8ClNS

>  <MolWeight>
113.60962

>  <Cat>
S4206

>  <Name>
Cysteamine HCl

>  <Synonyms>
Mercaptamine

>  <Target>
Antioxidant

>  <Form>
Hydrochloride

>  <CAS>
156-57-0

>  <URL>
http://selleckchem.com/products/cysteamine-hcl.html

$$$$
