Cytidine.cdx
 OpenBabel08302521453D

 30 31  0  0  0  0  0  0  0  0999 V2000
   -0.9096   -0.7217   -0.7633 C   0  0  0  0  0  0  0  0  0  0  0  0
    0.0899   -1.2902    0.0379 N   0  0  0  0  0  0  0  0  0  0  0  0
    1.0721   -0.5112    0.6092 C   0  0  0  0  0  0  0  0  0  0  0  0
    1.0934    0.8102    0.4399 C   0  0  0  0  0  0  0  0  0  0  0  0
    0.0222    1.3681   -0.4044 C   0  0  0  0  0  0  0  0  0  0  0  0
   -0.9001    0.6422   -0.9523 N   0  0  0  0  0  0  0  0  0  0  0  0
   -1.7896   -1.4160   -1.2647 O   0  0  0  0  0  0  0  0  0  0  0  0
   -0.0285    2.7164   -0.6306 N   0  0  0  0  0  0  0  0  0  0  0  0
    0.0952   -2.7446    0.1639 C   0  0  2  0  0  0  0  0  0  0  0  0
    0.6417   -3.1417    1.4474 O   0  0  0  0  0  0  0  0  0  0  0  0
    1.4498   -4.3300    1.2634 C   0  0  1  0  0  0  0  0  0  0  0  0
    1.3198   -4.7468   -0.1962 C   0  0  2  0  0  0  0  0  0  0  0  0
    0.9424   -3.4585   -0.9089 C   0  0  1  0  0  0  0  0  0  0  0  0
    2.8908   -4.0111    1.6692 C   0  0  0  0  0  0  0  0  0  0  0  0
    0.2600   -5.7019   -0.3729 O   0  0  0  0  0  0  0  0  0  0  0  0
    0.2579   -3.7299   -2.1260 O   0  0  0  0  0  0  0  0  0  0  0  0
    2.9680   -3.7075    3.0622 O   0  0  0  0  0  0  0  0  0  0  0  0
    1.8320   -1.0071    1.2052 H   0  0  0  0  0  0  0  0  0  0  0  0
    1.8469    1.4576    0.8637 H   0  0  0  0  0  0  0  0  0  0  0  0
    0.2990    3.3259    0.1084 H   0  0  0  0  0  0  0  0  0  0  0  0
   -0.9187    3.0079   -1.0258 H   0  0  0  0  0  0  0  0  0  0  0  0
   -0.9384   -3.1111    0.1366 H   0  0  0  0  0  0  0  0  0  0  0  0
    1.0412   -5.0878    1.9413 H   0  0  0  0  0  0  0  0  0  0  0  0
    2.2245   -5.2020   -0.6094 H   0  0  0  0  0  0  0  0  0  0  0  0
    1.8364   -2.8732   -1.1382 H   0  0  0  0  0  0  0  0  0  0  0  0
    3.5423   -4.8713    1.4877 H   0  0  0  0  0  0  0  0  0  0  0  0
    3.2832   -3.1493    1.1211 H   0  0  0  0  0  0  0  0  0  0  0  0
   -0.4463   -5.5295    0.2732 H   0  0  0  0  0  0  0  0  0  0  0  0
   -0.1887   -4.5932   -2.0147 H   0  0  0  0  0  0  0  0  0  0  0  0
    2.0741   -3.4612    3.3655 H   0  0  0  0  0  0  0  0  0  0  0  0
  1  2  1  0  0  0  0
  1  7  2  0  0  0  0
  2  3  1  0  0  0  0
  3  4  2  0  0  0  0
  3 18  1  0  0  0  0
  4  5  1  0  0  0  0
  4 19  1  0  0  0  0
  5  6  2  0  0  0  0
  5  8  1  0  0  0  0
  6  1  1  0  0  0  0
  8 20  1  0  0  0  0
  8 21  1  0  0  0  0
  9  2  1  0  0  0  0
  9 10  1  0  0  0  0
  9 22  1  6  0  0  0
 10 11  1  0  0  0  0
 11 12  1  0  0  0  0
 11 23  1  1  0  0  0
 11 14  1  0  0  0  0
 12 13  1  0  0  0  0
 12 15  1  0  0  0  0
 12 24  1  6  0  0  0
 13  9  1  0  0  0  0
 13 16  1  0  0  0  0
 13 25  1  6  0  0  0
 14 17  1  0  0  0  0
 14 26  1  0  0  0  0
 14 27  1  0  0  0  0
 15 28  1  0  0  0  0
 16 29  1  0  0  0  0
 17 30  1  0  0  0  0
M  END
>  <Mol_ID>
959

>  <Formula>
C9H13N3O5

>  <MolWeight>
243.21662

>  <Cat>
S2053

>  <Name>
Cytidine

>  <Synonyms>
N/A

>  <Target>
Nucleoside Analog/Antimetabolite

>  <Form>
free base

>  <CAS>
65-46-3

>  <URL>
http://selleckchem.com/products/cytidine.html

$$$$
