Cytosporone B
 OpenBabel08302521233D

 49 49  0  0  0  0  0  0  0  0999 V2000
   -0.0248    1.7682   -0.0642 C   0  0  0  0  0  0  0  0  0  0  0  0
   -1.2242    1.0072    0.0300 C   0  0  0  0  0  0  0  0  0  0  0  0
   -1.1213   -0.3921    0.0856 C   0  0  0  0  0  0  0  0  0  0  0  0
    0.1169   -1.0345    0.0658 C   0  0  0  0  0  0  0  0  0  0  0  0
    1.2790   -0.2842   -0.0251 C   0  0  0  0  0  0  0  0  0  0  0  0
    1.2197    1.1022   -0.0899 C   0  0  0  0  0  0  0  0  0  0  0  0
   -0.5131    3.9693    1.1088 C   0  0  0  0  0  0  0  0  0  0  0  0
    0.0048    3.2868   -0.1370 C   0  0  0  0  0  0  0  0  0  0  0  0
   -0.5505    3.4658    2.2240 O   0  0  0  0  0  0  0  0  0  0  0  0
   -0.8549    5.2583    0.8208 O   0  0  0  0  0  0  0  0  0  0  0  0
   -2.5602    1.6914   -0.0256 C   0  0  0  0  0  0  0  0  0  0  0  0
   -3.7674    1.1428    0.7315 C   0  0  0  0  0  0  0  0  0  0  0  0
   -4.9450    2.1303    0.6509 C   0  0  0  0  0  0  0  0  0  0  0  0
   -6.2180    1.6305    1.3390 C   0  0  0  0  0  0  0  0  0  0  0  0
   -7.3571    2.6500    1.1870 C   0  0  0  0  0  0  0  0  0  0  0  0
   -8.6446    2.1778    1.8678 C   0  0  0  0  0  0  0  0  0  0  0  0
   -9.7748    3.1994    1.7161 C   0  0  0  0  0  0  0  0  0  0  0  0
  -11.0517    2.7260    2.3954 C   0  0  0  0  0  0  0  0  0  0  0  0
   -2.6553    2.7068   -0.7183 O   0  0  0  0  0  0  0  0  0  0  0  0
    2.4703   -0.9450   -0.0620 O   0  0  0  0  0  0  0  0  0  0  0  0
   -2.2130   -1.2132    0.1125 O   0  0  0  0  0  0  0  0  0  0  0  0
   -1.3124    6.0466    1.9265 C   0  0  0  0  0  0  0  0  0  0  0  0
   -2.7548    5.7200    2.2724 C   0  0  0  0  0  0  0  0  0  0  0  0
    0.1785   -2.1191    0.1040 H   0  0  0  0  0  0  0  0  0  0  0  0
    2.1390    1.6772   -0.1659 H   0  0  0  0  0  0  0  0  0  0  0  0
    1.0367    3.6368   -0.2688 H   0  0  0  0  0  0  0  0  0  0  0  0
   -0.5390    3.6247   -1.0241 H   0  0  0  0  0  0  0  0  0  0  0  0
   -4.0889    0.2047    0.2733 H   0  0  0  0  0  0  0  0  0  0  0  0
   -3.4909    0.9696    1.7766 H   0  0  0  0  0  0  0  0  0  0  0  0
   -4.6448    3.0896    1.0904 H   0  0  0  0  0  0  0  0  0  0  0  0
   -5.1735    2.3269   -0.4054 H   0  0  0  0  0  0  0  0  0  0  0  0
   -6.5244    0.6733    0.9001 H   0  0  0  0  0  0  0  0  0  0  0  0
   -6.0189    1.4540    2.4023 H   0  0  0  0  0  0  0  0  0  0  0  0
   -7.0479    3.6107    1.6175 H   0  0  0  0  0  0  0  0  0  0  0  0
   -7.5525    2.8246    0.1216 H   0  0  0  0  0  0  0  0  0  0  0  0
   -8.9583    1.2206    1.4338 H   0  0  0  0  0  0  0  0  0  0  0  0
   -8.4520    2.0034    2.9331 H   0  0  0  0  0  0  0  0  0  0  0  0
   -9.4729    4.1589    2.1514 H   0  0  0  0  0  0  0  0  0  0  0  0
   -9.9800    3.3764    0.6532 H   0  0  0  0  0  0  0  0  0  0  0  0
  -10.8904    2.5651    3.4661 H   0  0  0  0  0  0  0  0  0  0  0  0
  -11.8436    3.4731    2.2809 H   0  0  0  0  0  0  0  0  0  0  0  0
  -11.4056    1.7877    1.9564 H   0  0  0  0  0  0  0  0  0  0  0  0
    3.1943   -0.2967   -0.0756 H   0  0  0  0  0  0  0  0  0  0  0  0
   -2.5288   -1.2831   -0.8073 H   0  0  0  0  0  0  0  0  0  0  0  0
   -0.6510    5.9198    2.7925 H   0  0  0  0  0  0  0  0  0  0  0  0
   -1.2419    7.0942    1.6197 H   0  0  0  0  0  0  0  0  0  0  0  0
   -2.8585    4.6832    2.6064 H   0  0  0  0  0  0  0  0  0  0  0  0
   -3.1172    6.3758    3.0685 H   0  0  0  0  0  0  0  0  0  0  0  0
   -3.3977    5.8371    1.3947 H   0  0  0  0  0  0  0  0  0  0  0  0
  1  2  2  0  0  0  0
  1  6  1  0  0  0  0
  1  8  1  0  0  0  0
  2  3  1  0  0  0  0
  2 11  1  0  0  0  0
  3  4  2  0  0  0  0
  3 21  1  0  0  0  0
  4  5  1  0  0  0  0
  4 24  1  0  0  0  0
  5  6  2  0  0  0  0
  5 20  1  0  0  0  0
  6 25  1  0  0  0  0
  7  8  1  0  0  0  0
  7  9  2  0  0  0  0
  7 10  1  0  0  0  0
  8 26  1  0  0  0  0
  8 27  1  0  0  0  0
 10 22  1  0  0  0  0
 11 12  1  0  0  0  0
 11 19  2  0  0  0  0
 12 13  1  0  0  0  0
 12 28  1  0  0  0  0
 12 29  1  0  0  0  0
 13 14  1  0  0  0  0
 13 30  1  0  0  0  0
 13 31  1  0  0  0  0
 14 15  1  0  0  0  0
 14 32  1  0  0  0  0
 14 33  1  0  0  0  0
 15 16  1  0  0  0  0
 15 34  1  0  0  0  0
 15 35  1  0  0  0  0
 16 17  1  0  0  0  0
 16 36  1  0  0  0  0
 16 37  1  0  0  0  0
 17 18  1  0  0  0  0
 17 38  1  0  0  0  0
 17 39  1  0  0  0  0
 18 40  1  0  0  0  0
 18 41  1  0  0  0  0
 18 42  1  0  0  0  0
 20 43  1  0  0  0  0
 21 44  1  0  0  0  0
 22 23  1  0  0  0  0
 22 45  1  0  0  0  0
 22 46  1  0  0  0  0
 23 47  1  0  0  0  0
 23 48  1  0  0  0  0
 23 49  1  0  0  0  0
M  END
>  <Mol_ID>
4845

>  <Formula>
C18H26O5

>  <MolWeight>
322.39604

>  <Cat>
S6674

>  <Name>
Cytosporone B

>  <Synonyms>
N/A

>  <Target>
Nur77

>  <Form>
Free Base

>  <CAS>
321661-62-5

>  <URL>
http://www.selleck.cn/products/cytosporone-b.html

$$$$
