CZC-25146
 OpenBabel08302520433D

 59 62  0  0  0  0  0  0  0  0999 V2000
    1.8019   -1.3654    4.6017 C   0  0  0  0  0  0  0  0  0  0  0  0
    2.4031   -0.5705    3.1257 S   0  0  0  0  0  0  0  0  0  0  0  0
    1.2823   -0.2506    2.2712 O   0  0  0  0  0  0  0  0  0  0  0  0
    3.3450    0.4531    3.5335 O   0  0  0  0  0  0  0  0  0  0  0  0
    3.3423   -1.8046    2.4559 N   0  0  0  0  0  0  0  0  0  0  0  0
    2.7434   -2.6231    1.4442 C   0  0  0  0  0  0  0  0  0  0  0  0
    2.6133   -2.1952    0.1054 C   0  0  0  0  0  0  0  0  0  0  0  0
    1.9866   -3.0594   -0.8047 C   0  0  0  0  0  0  0  0  0  0  0  0
    1.5332   -4.3188   -0.4049 C   0  0  0  0  0  0  0  0  0  0  0  0
    1.6714   -4.7230    0.9203 C   0  0  0  0  0  0  0  0  0  0  0  0
    2.2627   -3.8696    1.8480 C   0  0  0  0  0  0  0  0  0  0  0  0
    3.0852   -0.9604   -0.3834 N   0  0  0  0  0  0  0  0  0  0  0  0
    6.3676   -0.2343    0.8789 C   0  0  0  0  0  0  0  0  0  0  0  0
    5.2490   -0.9179    0.5999 N   0  0  0  0  0  0  0  0  0  0  0  0
    4.2474   -0.2563   -0.0344 C   0  0  0  0  0  0  0  0  0  0  0  0
    4.3400    1.0891   -0.3370 C   0  0  0  0  0  0  0  0  0  0  0  0
    5.5156    1.7063   -0.0210 C   0  0  0  0  0  0  0  0  0  0  0  0
    6.5475    1.0552    0.5402 N   0  0  0  0  0  0  0  0  0  0  0  0
    7.3252   -0.8874    1.6761 N   0  0  0  0  0  0  0  0  0  0  0  0
    8.0586   -0.2571    2.7049 C   0  0  0  0  0  0  0  0  0  0  0  0
    9.2635   -0.7456    3.2316 C   0  0  0  0  0  0  0  0  0  0  0  0
    9.9259   -0.0078    4.2443 C   0  0  0  0  0  0  0  0  0  0  0  0
    9.4277    1.1915    4.7721 C   0  0  0  0  0  0  0  0  0  0  0  0
    8.2160    1.6334    4.2539 C   0  0  0  0  0  0  0  0  0  0  0  0
    7.5345    0.9134    3.2815 C   0  0  0  0  0  0  0  0  0  0  0  0
   11.8023    1.3953    7.4073 C   0  0  0  0  0  0  0  0  0  0  0  0
   11.5101    1.9004    5.9871 C   0  0  0  0  0  0  0  0  0  0  0  0
   10.0632    1.9201    5.7507 N   0  0  0  0  0  0  0  0  0  0  0  0
    9.2907    2.6207    6.7905 C   0  0  0  0  0  0  0  0  0  0  0  0
    9.6720    2.0654    8.1695 C   0  0  0  0  0  0  0  0  0  0  0  0
   11.0872    2.1524    8.4016 O   0  0  0  0  0  0  0  0  0  0  0  0
    9.9655   -1.8750    2.8984 O   0  0  0  0  0  0  0  0  0  0  0  0
    3.3236    1.7639   -0.8909 F   0  0  0  0  0  0  0  0  0  0  0  0
    9.4730   -2.7631    1.9114 C   0  0  0  0  0  0  0  0  0  0  0  0
    1.4318   -0.5919    5.2785 H   0  0  0  0  0  0  0  0  0  0  0  0
    2.6235   -1.9034    5.0784 H   0  0  0  0  0  0  0  0  0  0  0  0
    0.9919   -2.0462    4.3337 H   0  0  0  0  0  0  0  0  0  0  0  0
    4.2191   -1.3913    2.1178 H   0  0  0  0  0  0  0  0  0  0  0  0
    1.8862   -2.7693   -1.8483 H   0  0  0  0  0  0  0  0  0  0  0  0
    1.0831   -4.9882   -1.1333 H   0  0  0  0  0  0  0  0  0  0  0  0
    1.3264   -5.7059    1.2293 H   0  0  0  0  0  0  0  0  0  0  0  0
    2.3786   -4.1899    2.8787 H   0  0  0  0  0  0  0  0  0  0  0  0
    2.3616   -0.3870   -0.8087 H   0  0  0  0  0  0  0  0  0  0  0  0
    5.6601    2.7680   -0.1863 H   0  0  0  0  0  0  0  0  0  0  0  0
    6.9126   -1.7614    1.9816 H   0  0  0  0  0  0  0  0  0  0  0  0
   10.8539   -0.4210    4.6319 H   0  0  0  0  0  0  0  0  0  0  0  0
    7.7827    2.5786    4.5686 H   0  0  0  0  0  0  0  0  0  0  0  0
    6.5764    1.3195    2.9666 H   0  0  0  0  0  0  0  0  0  0  0  0
   11.5382    0.3366    7.5102 H   0  0  0  0  0  0  0  0  0  0  0  0
   12.8697    1.4999    7.6237 H   0  0  0  0  0  0  0  0  0  0  0  0
   11.8711    2.9328    5.8963 H   0  0  0  0  0  0  0  0  0  0  0  0
   12.0626    1.3115    5.2485 H   0  0  0  0  0  0  0  0  0  0  0  0
    9.5277    3.6893    6.7350 H   0  0  0  0  0  0  0  0  0  0  0  0
    8.2069    2.5129    6.6752 H   0  0  0  0  0  0  0  0  0  0  0  0
    9.1660    2.6412    8.9506 H   0  0  0  0  0  0  0  0  0  0  0  0
    9.3576    1.0191    8.2686 H   0  0  0  0  0  0  0  0  0  0  0  0
    8.5977   -3.3062    2.2810 H   0  0  0  0  0  0  0  0  0  0  0  0
    9.2768   -2.2616    0.9607 H   0  0  0  0  0  0  0  0  0  0  0  0
   10.2566   -3.5043    1.7199 H   0  0  0  0  0  0  0  0  0  0  0  0
  1  2  1  0  0  0  0
  1 35  1  0  0  0  0
  1 36  1  0  0  0  0
  1 37  1  0  0  0  0
  2  3  2  0  0  0  0
  2  4  2  0  0  0  0
  2  5  1  0  0  0  0
  5  6  1  0  0  0  0
  5 38  1  0  0  0  0
  6  7  2  0  0  0  0
  6 11  1  0  0  0  0
  7  8  1  0  0  0  0
  7 12  1  0  0  0  0
  8  9  2  0  0  0  0
  8 39  1  0  0  0  0
  9 10  1  0  0  0  0
  9 40  1  0  0  0  0
 10 11  2  0  0  0  0
 10 41  1  0  0  0  0
 11 42  1  0  0  0  0
 12 15  1  0  0  0  0
 12 43  1  0  0  0  0
 13 14  2  0  0  0  0
 13 18  1  0  0  0  0
 13 19  1  0  0  0  0
 14 15  1  0  0  0  0
 15 16  2  0  0  0  0
 16 17  1  0  0  0  0
 16 33  1  0  0  0  0
 17 18  2  0  0  0  0
 17 44  1  0  0  0  0
 19 20  1  0  0  0  0
 19 45  1  0  0  0  0
 20 21  2  0  0  0  0
 20 25  1  0  0  0  0
 21 22  1  0  0  0  0
 21 32  1  0  0  0  0
 22 23  2  0  0  0  0
 22 46  1  0  0  0  0
 23 24  1  0  0  0  0
 23 28  1  0  0  0  0
 24 25  2  0  0  0  0
 24 47  1  0  0  0  0
 25 48  1  0  0  0  0
 26 27  1  0  0  0  0
 26 31  1  0  0  0  0
 26 49  1  0  0  0  0
 26 50  1  0  0  0  0
 27 28  1  0  0  0  0
 27 51  1  0  0  0  0
 27 52  1  0  0  0  0
 28 29  1  0  0  0  0
 29 30  1  0  0  0  0
 29 53  1  0  0  0  0
 29 54  1  0  0  0  0
 30 31  1  0  0  0  0
 30 55  1  0  0  0  0
 30 56  1  0  0  0  0
 32 34  1  0  0  0  0
 34 57  1  0  0  0  0
 34 58  1  0  0  0  0
 34 59  1  0  0  0  0
M  END
>  <Mol_ID>
4154

>  <Formula>
C22H25FN6O4S

>  <MolWeight>
488.5351032

>  <Cat>
S2002

>  <Name>
CZC-25146

>  <Synonyms>
N/A

>  <Target>
LRRK2

>  <Form>
Free Base

>  <CAS>
1191911-26-8

>  <URL>
http://www.selleck.cn/products/czc-25146.html

$$$$
