CZC24832.cdx
 OpenBabel08302519573D

 42 44  0  0  0  0  0  0  0  0999 V2000
    0.6340    1.0893    0.2136 C   0  0  0  0  0  0  0  0  0  0  0  0
   -0.7228    1.0200   -0.0555 C   0  0  0  0  0  0  0  0  0  0  0  0
   -1.3849   -0.1487   -0.1588 N   0  0  0  0  0  0  0  0  0  0  0  0
   -0.6513   -1.2744    0.0200 C   0  0  0  0  0  0  0  0  0  0  0  0
    0.7221   -1.3172    0.3098 C   0  0  0  0  0  0  0  0  0  0  0  0
    1.3640   -0.0830    0.4442 C   0  0  0  0  0  0  0  0  0  0  0  0
    1.3858    2.6707    0.1822 S   0  0  0  0  0  0  0  0  0  0  0  0
    1.4247   -2.6276    0.3438 C   0  0  0  0  0  0  0  0  0  0  0  0
    0.5059    3.5537    0.9168 O   0  0  0  0  0  0  0  0  0  0  0  0
    2.7842    2.5255    0.5431 O   0  0  0  0  0  0  0  0  0  0  0  0
    1.2573    3.1312   -1.4169 N   0  0  0  0  0  0  0  0  0  0  0  0
    2.0272    2.6285   -2.5726 C   0  0  0  0  0  0  0  0  0  0  0  0
    1.6854    1.1696   -2.8799 C   0  0  0  0  0  0  0  0  0  0  0  0
    1.6052    3.4860   -3.7840 C   0  0  0  0  0  0  0  0  0  0  0  0
    3.5348    2.7958   -2.3742 C   0  0  0  0  0  0  0  0  0  0  0  0
    2.4903   -2.8991    1.1425 C   0  0  0  0  0  0  0  0  0  0  0  0
    3.0891   -4.1693    1.1273 N   0  0  0  0  0  0  0  0  0  0  0  0
    2.6093   -5.2153    0.3396 C   0  0  0  0  0  0  0  0  0  0  0  0
    1.5189   -4.9451   -0.5042 C   0  0  0  0  0  0  0  0  0  0  0  0
    0.9880   -3.7187   -0.5477 C   0  0  0  0  0  0  0  0  0  0  0  0
    4.1965   -4.6118    1.7814 N   0  0  0  0  0  0  0  0  0  0  0  0
    4.3695   -5.8182    1.2504 C   0  0  0  0  0  0  0  0  0  0  0  0
    3.3814   -6.2662    0.4508 N   0  0  0  0  0  0  0  0  0  0  0  0
    1.0852   -5.9088   -1.3399 F   0  0  0  0  0  0  0  0  0  0  0  0
    5.4195   -6.6359    1.3431 N   0  0  0  0  0  0  0  0  0  0  0  0
   -1.3270    1.9075   -0.2325 H   0  0  0  0  0  0  0  0  0  0  0  0
   -1.2326   -2.1862   -0.1048 H   0  0  0  0  0  0  0  0  0  0  0  0
    2.4284   -0.0197    0.6568 H   0  0  0  0  0  0  0  0  0  0  0  0
    0.4955    3.7896   -1.5902 H   0  0  0  0  0  0  0  0  0  0  0  0
    0.6036    1.0224   -2.9790 H   0  0  0  0  0  0  0  0  0  0  0  0
    2.1533    0.8436   -3.8155 H   0  0  0  0  0  0  0  0  0  0  0  0
    2.0509    0.4964   -2.1016 H   0  0  0  0  0  0  0  0  0  0  0  0
    1.7832    4.5511   -3.5952 H   0  0  0  0  0  0  0  0  0  0  0  0
    2.1697    3.2080   -4.6832 H   0  0  0  0  0  0  0  0  0  0  0  0
    0.5397    3.3643   -4.0049 H   0  0  0  0  0  0  0  0  0  0  0  0
    3.7944    3.8340   -2.1405 H   0  0  0  0  0  0  0  0  0  0  0  0
    3.9210    2.1611   -1.5722 H   0  0  0  0  0  0  0  0  0  0  0  0
    4.0800    2.5118   -3.2824 H   0  0  0  0  0  0  0  0  0  0  0  0
    2.9463   -2.1807    1.8182 H   0  0  0  0  0  0  0  0  0  0  0  0
    0.2355   -3.5208   -1.3029 H   0  0  0  0  0  0  0  0  0  0  0  0
    5.5601   -7.0465    2.2561 H   0  0  0  0  0  0  0  0  0  0  0  0
    5.3405   -7.3871    0.6632 H   0  0  0  0  0  0  0  0  0  0  0  0
  1  2  2  0  0  0  0
  1  7  1  0  0  0  0
  2  3  1  0  0  0  0
  2 26  1  0  0  0  0
  3  4  2  0  0  0  0
  4  5  1  0  0  0  0
  4 27  1  0  0  0  0
  5  6  2  0  0  0  0
  5  8  1  0  0  0  0
  6  1  1  0  0  0  0
  6 28  1  0  0  0  0
  7  9  2  0  0  0  0
  7 10  2  0  0  0  0
  7 11  1  0  0  0  0
  8 16  2  0  0  0  0
 11 12  1  0  0  0  0
 11 29  1  0  0  0  0
 12 13  1  0  0  0  0
 12 14  1  0  0  0  0
 12 15  1  0  0  0  0
 13 30  1  0  0  0  0
 13 31  1  0  0  0  0
 13 32  1  0  0  0  0
 14 33  1  0  0  0  0
 14 34  1  0  0  0  0
 14 35  1  0  0  0  0
 15 36  1  0  0  0  0
 15 37  1  0  0  0  0
 15 38  1  0  0  0  0
 16 17  1  0  0  0  0
 16 39  1  0  0  0  0
 17 21  1  0  0  0  0
 18 19  1  0  0  0  0
 18 17  1  0  0  0  0
 19 24  1  0  0  0  0
 20  8  1  0  0  0  0
 20 19  2  0  0  0  0
 20 40  1  0  0  0  0
 21 22  2  0  0  0  0
 22 23  1  0  0  0  0
 22 25  1  0  0  0  0
 23 18  2  0  0  0  0
 25 41  1  0  0  0  0
 25 42  1  0  0  0  0
M  END
>  <Mol_ID>
2263

>  <Formula>
C15H17FN6O2S

>  <MolWeight>
364.3978832

>  <Cat>
S7018

>  <Name>
CZC24832

>  <Synonyms>
N/A

>  <Target>
PI3K

>  <Form>
free base

>  <CAS>
1159824-67-5

>  <URL>
http://selleckchem.com/products/czc24832.html

$$$$
