D-(+)-Malic acid
 OpenBabel08302521383D

 15 14  0  0  1  0  0  0  0  0999 V2000
    0.8691    0.0537   -0.1556 C   0  0  2  0  0  0  0  0  0  0  0  0
    0.3575    1.2799    0.5905 C   0  0  0  0  0  0  0  0  0  0  0  0
    0.4133    0.0948   -1.6134 C   0  0  0  0  0  0  0  0  0  0  0  0
    0.3604   -1.1752    0.3969 O   0  0  0  0  0  0  0  0  0  0  0  0
    0.9360    1.3514    1.9764 C   0  0  0  0  0  0  0  0  0  0  0  0
    0.2334   -1.1584   -2.1085 O   0  0  0  0  0  0  0  0  0  0  0  0
    0.2104    1.1056   -2.2644 O   0  0  0  0  0  0  0  0  0  0  0  0
    0.1780    2.0836    2.8243 O   0  0  0  0  0  0  0  0  0  0  0  0
    1.9893    0.8398    2.3230 O   0  0  0  0  0  0  0  0  0  0  0  0
    1.9627   -0.0052   -0.1540 H   0  0  0  0  0  0  0  0  0  0  0  0
    0.6462    2.2025    0.0744 H   0  0  0  0  0  0  0  0  0  0  0  0
   -0.7357    1.2424    0.6581 H   0  0  0  0  0  0  0  0  0  0  0  0
   -0.5518   -1.0268    0.7074 H   0  0  0  0  0  0  0  0  0  0  0  0
    0.4236   -1.8070   -1.3895 H   0  0  0  0  0  0  0  0  0  0  0  0
   -0.6153    2.4897    2.4254 H   0  0  0  0  0  0  0  0  0  0  0  0
  1  2  1  0  0  0  0
  1  3  1  0  0  0  0
  1  4  1  0  0  0  0
  1 10  1  1  0  0  0
  2  5  1  0  0  0  0
  2 11  1  0  0  0  0
  2 12  1  0  0  0  0
  3  6  1  0  0  0  0
  3  7  2  0  0  0  0
  4 13  1  0  0  0  0
  5  8  1  0  0  0  0
  5  9  2  0  0  0  0
  6 14  1  0  0  0  0
  8 15  1  0  0  0  0
M  END
>  <Mol_ID>
7625

>  <Formula>
C4H6O5

>  <MolWeight>
134.08744

>  <Cat>
E2962

>  <Name>
D-(+)-Malic acid

>  <Synonyms>
D-Malic acid

>  <Target>
Others

>  <Form>
free base

>  <CAS>
636-61-3

>  <URL>
https://www.selleckchem.com/products/d-plus-malic-acid.html

$$$$
