D-(+)-Fucose
 OpenBabel08302521373D

 23 22  0  0  1  0  0  0  0  0999 V2000
    1.0198    0.0635   -0.1494 C   0  0  1  0  0  0  0  0  0  0  0  0
    0.7436    1.0908    0.9860 C   0  0  2  0  0  0  0  0  0  0  0  0
    2.4006   -0.6096   -0.0857 C   0  0  2  0  0  0  0  0  0  0  0  0
    0.0099   -0.9624   -0.0838 O   0  0  0  0  0  0  0  0  0  0  0  0
    1.6921    2.3081    0.9382 C   0  0  1  0  0  0  0  0  0  0  0  0
    0.8301    0.4808    2.2865 O   0  0  0  0  0  0  0  0  0  0  0  0
    2.5554   -1.6079   -1.2202 C   0  0  0  0  0  0  0  0  0  0  0  0
    2.5585   -1.2272    1.1977 O   0  0  0  0  0  0  0  0  0  0  0  0
    1.3400    3.3811    1.9632 C   0  0  0  0  0  0  0  0  0  0  0  0
    3.0368    1.9052    1.2039 O   0  0  0  0  0  0  0  0  0  0  0  0
    3.0101   -2.7426   -1.0592 O   0  0  0  0  0  0  0  0  0  0  0  0
    0.8909    0.5582   -1.1183 H   0  0  0  0  0  0  0  0  0  0  0  0
   -0.2926    1.4390    0.8884 H   0  0  0  0  0  0  0  0  0  0  0  0
    3.2056    0.1145   -0.2245 H   0  0  0  0  0  0  0  0  0  0  0  0
    0.2535   -1.5573    0.6528 H   0  0  0  0  0  0  0  0  0  0  0  0
    1.6709    2.7528   -0.0638 H   0  0  0  0  0  0  0  0  0  0  0  0
    1.4227   -0.2956    2.2079 H   0  0  0  0  0  0  0  0  0  0  0  0
    2.3220   -1.2277   -2.2315 H   0  0  0  0  0  0  0  0  0  0  0  0
    3.3999   -1.7246    1.1490 H   0  0  0  0  0  0  0  0  0  0  0  0
    1.3982    2.9885    2.9866 H   0  0  0  0  0  0  0  0  0  0  0  0
    2.0656    4.2018    1.9102 H   0  0  0  0  0  0  0  0  0  0  0  0
    0.3446    3.7864    1.7958 H   0  0  0  0  0  0  0  0  0  0  0  0
    3.0216    1.5041    2.0946 H   0  0  0  0  0  0  0  0  0  0  0  0
  1  4  1  0  0  0  0
  1 12  1  6  0  0  0
  1  3  1  0  0  0  0
  1  2  1  0  0  0  0
  2 13  1  6  0  0  0
  2  6  1  0  0  0  0
  2  5  1  0  0  0  0
  3 14  1  6  0  0  0
  3  8  1  0  0  0  0
  3  7  1  0  0  0  0
  4 15  1  0  0  0  0
  5  9  1  0  0  0  0
  5 10  1  0  0  0  0
  5 16  1  6  0  0  0
  6 17  1  0  0  0  0
  7 11  2  0  0  0  0
  7 18  1  0  0  0  0
  8 19  1  0  0  0  0
  9 20  1  0  0  0  0
  9 21  1  0  0  0  0
  9 22  1  0  0  0  0
 10 23  1  0  0  0  0
M  END
>  <Mol_ID>
7446

>  <Formula>
C6H12O5

>  <MolWeight>
164.15648

>  <Cat>
E4548

>  <Name>
D-(+)-Fucose

>  <Synonyms>
D-(+)-Fucose

>  <Target>
Others

>  <Form>
Free base

>  <CAS>
3615-37-0

>  <URL>
https://www.selleckchem.com/products/d-fucose.html

$$$$
