D-(?)-Pantolactone
 OpenBabel08302520383D

 19 19  0  0  0  0  0  0  0  0999 V2000
   -0.7711   -1.0088   -0.1584 C   0  0  2  0  0  0  0  0  0  0  0  0
    0.7291   -1.1053    0.1064 C   0  0  0  0  0  0  0  0  0  0  0  0
   -1.1111    0.3572    0.4123 C   0  0  0  0  0  0  0  0  0  0  0  0
   -1.5013   -2.0830    0.4010 O   0  0  0  0  0  0  0  0  0  0  0  0
    1.1408    0.3650    0.0510 C   0  0  0  0  0  0  0  0  0  0  0  0
    1.0480   -1.7051    1.4865 C   0  0  0  0  0  0  0  0  0  0  0  0
    1.4449   -1.9221   -0.9717 C   0  0  0  0  0  0  0  0  0  0  0  0
    0.0116    1.1262    0.4850 O   0  0  0  0  0  0  0  0  0  0  0  0
   -2.2284    0.7177    0.7435 O   0  0  0  0  0  0  0  0  0  0  0  0
   -0.9894   -0.9695   -1.2322 H   0  0  0  0  0  0  0  0  0  0  0  0
   -2.4181   -1.7636    0.5169 H   0  0  0  0  0  0  0  0  0  0  0  0
    1.9844    0.5867    0.7133 H   0  0  0  0  0  0  0  0  0  0  0  0
    1.4047    0.6969   -0.9585 H   0  0  0  0  0  0  0  0  0  0  0  0
    0.7469   -2.7577    1.5425 H   0  0  0  0  0  0  0  0  0  0  0  0
    2.1240   -1.6635    1.6903 H   0  0  0  0  0  0  0  0  0  0  0  0
    0.5372   -1.1660    2.2914 H   0  0  0  0  0  0  0  0  0  0  0  0
    1.2586   -1.5126   -1.9714 H   0  0  0  0  0  0  0  0  0  0  0  0
    2.5287   -1.9214   -0.8123 H   0  0  0  0  0  0  0  0  0  0  0  0
    1.1011   -2.9622   -0.9721 H   0  0  0  0  0  0  0  0  0  0  0  0
  1  2  1  0  0  0  0
  1  3  1  0  0  0  0
  1 10  1  6  0  0  0
  1  4  1  0  0  0  0
  2  5  1  0  0  0  0
  2  6  1  0  0  0  0
  2  7  1  0  0  0  0
  3  8  1  0  0  0  0
  3  9  2  0  0  0  0
  4 11  1  0  0  0  0
  5  8  1  0  0  0  0
  5 12  1  0  0  0  0
  5 13  1  0  0  0  0
  6 14  1  0  0  0  0
  6 15  1  0  0  0  0
  6 16  1  0  0  0  0
  7 17  1  0  0  0  0
  7 18  1  0  0  0  0
  7 19  1  0  0  0  0
M  END
>  <Mol_ID>
3516

>  <Formula>
C6H10O3

>  <MolWeight>
130.1418

>  <Cat>
S6027

>  <Name>
D-(?)-Pantolactone

>  <Synonyms>
N/A

>  <Target>
Others

>  <Form>
free base

>  <CAS>
599-04-2

>  <URL>
http://www.selleck.cn/products/d-pantolactone.html

$$$$
