D-Alanine
 OpenBabel08302521383D

 13 12  0  0  0  0  0  0  0  0999 V2000
    1.0073    0.0167    0.0809 C   0  0  2  0  0  0  0  0  0  0  0  0
    0.5350   -1.0770    1.0245 C   0  0  0  0  0  0  0  0  0  0  0  0
    0.5477    1.4074    0.5486 C   0  0  0  0  0  0  0  0  0  0  0  0
    0.2276    2.1926   -0.5155 O   0  0  0  0  0  0  0  0  0  0  0  0
    0.4966    1.7900    1.7057 O   0  0  0  0  0  0  0  0  0  0  0  0
    0.4888   -0.2109   -1.3006 N   0  0  0  0  0  0  0  0  0  0  0  0
    2.1015    0.0388    0.0349 H   0  0  0  0  0  0  0  0  0  0  0  0
    0.9356   -0.9176    2.0319 H   0  0  0  0  0  0  0  0  0  0  0  0
   -0.5571   -1.0937    1.1081 H   0  0  0  0  0  0  0  0  0  0  0  0
    0.8693   -2.0626    0.6847 H   0  0  0  0  0  0  0  0  0  0  0  0
    0.3387    1.6194   -1.3153 H   0  0  0  0  0  0  0  0  0  0  0  0
    0.9291   -1.0622   -1.6608 H   0  0  0  0  0  0  0  0  0  0  0  0
   -0.5050   -0.4596   -1.2297 H   0  0  0  0  0  0  0  0  0  0  0  0
  1  2  1  0  0  0  0
  1  3  1  0  0  0  0
  1  6  1  0  0  0  0
  1  7  1  6  0  0  0
  2  8  1  0  0  0  0
  2  9  1  0  0  0  0
  2 10  1  0  0  0  0
  3  4  1  0  0  0  0
  3  5  2  0  0  0  0
  4 11  1  0  0  0  0
  6 12  1  0  0  0  0
  6 13  1  0  0  0  0
M  END
>  <Mol_ID>
7942

>  <Formula>
C3H7NO2

>  <MolWeight>
89.09318

>  <Cat>
S3203

>  <Name>
D-Alanine

>  <Synonyms>
Ala, (R)-Alanine, Ba 2776, D-¦Á-Alanine, NSC 158286

>  <Target>
NMDAR

>  <Form>
free base

>  <CAS>
338-69-2

>  <URL>
http://www.selleckchem.com/products/d-alanine.html

$$$$
