D-Carnitine hydrochloride
 OpenBabel08302520143D

 27 26  0  0  0  0  0  0  0  0999 V2000
    1.0154    1.0431   -2.0485 C   0  0  0  0  0  0  0  0  0  0  0  0
    2.4455    0.6544   -2.5337 N   0  3  0  0  0  0  0  0  0  0  0  0
    0.8770    1.1497   -0.5086 C   0  0  2  0  0  0  0  0  0  0  0  0
    2.7934   -0.7632   -2.0810 C   0  0  0  0  0  0  0  0  0  0  0  0
    2.4562    0.7141   -4.0676 C   0  0  0  0  0  0  0  0  0  0  0  0
   -0.5671    1.3865   -0.0612 C   0  0  0  0  0  0  0  0  0  0  0  0
    1.6607    2.2454   -0.0027 O   0  0  0  0  0  0  0  0  0  0  0  0
   -0.7374    1.2418    1.4301 C   0  0  0  0  0  0  0  0  0  0  0  0
    0.2848    1.7251    2.1739 O   0  0  0  0  0  0  0  0  0  0  0  0
   -1.7466    0.7772    1.9366 O   0  0  0  0  0  0  0  0  0  0  0  0
    3.5480    1.5942   -2.0454 C   0  0  0  0  0  0  0  0  0  0  0  0
    0.3366    0.2799   -2.4475 H   0  0  0  0  0  0  0  0  0  0  0  0
    0.7877    2.0052   -2.5202 H   0  0  0  0  0  0  0  0  0  0  0  0
    1.2437    0.2349   -0.0327 H   0  0  0  0  0  0  0  0  0  0  0  0
    1.9629   -1.4237   -2.3321 H   0  0  0  0  0  0  0  0  0  0  0  0
    3.7092   -1.0770   -2.5878 H   0  0  0  0  0  0  0  0  0  0  0  0
    2.9626   -0.7483   -0.9978 H   0  0  0  0  0  0  0  0  0  0  0  0
    2.3694    1.7642   -4.3666 H   0  0  0  0  0  0  0  0  0  0  0  0
    3.4025    0.2997   -4.4281 H   0  0  0  0  0  0  0  0  0  0  0  0
    1.6096    0.1374   -4.4487 H   0  0  0  0  0  0  0  0  0  0  0  0
   -0.9158    2.3879   -0.3416 H   0  0  0  0  0  0  0  0  0  0  0  0
   -1.2213    0.6420   -0.5303 H   0  0  0  0  0  0  0  0  0  0  0  0
    1.4548    3.0486   -0.5177 H   0  0  0  0  0  0  0  0  0  0  0  0
    1.0286    2.1050    1.6560 H   0  0  0  0  0  0  0  0  0  0  0  0
    3.2961    2.6136   -2.3508 H   0  0  0  0  0  0  0  0  0  0  0  0
    3.6477    1.5090   -0.9627 H   0  0  0  0  0  0  0  0  0  0  0  0
    4.4894    1.2805   -2.5089 H   0  0  0  0  0  0  0  0  0  0  0  0
  1  2  1  0  0  0  0
  1 12  1  0  0  0  0
  1 13  1  0  0  0  0
  2  4  1  0  0  0  0
  2  5  1  0  0  0  0
  2 11  1  0  0  0  0
  3  7  1  0  0  0  0
  3 14  1  1  0  0  0
  3  6  1  0  0  0  0
  3  1  1  0  0  0  0
  4 15  1  0  0  0  0
  4 16  1  0  0  0  0
  4 17  1  0  0  0  0
  5 18  1  0  0  0  0
  5 19  1  0  0  0  0
  5 20  1  0  0  0  0
  6  8  1  0  0  0  0
  6 21  1  0  0  0  0
  6 22  1  0  0  0  0
  7 23  1  0  0  0  0
  8  9  1  0  0  0  0
  8 10  2  0  0  0  0
  9 24  1  0  0  0  0
 11 25  1  0  0  0  0
 11 26  1  0  0  0  0
 11 27  1  0  0  0  0
M  CHG  1   2   1
M  END
>  <Mol_ID>
3168

>  <Formula>
C7H16ClNO3

>  <MolWeight>
197.65984

>  <Cat>
S5874

>  <Name>
D-Carnitine hydrochloride

>  <Synonyms>
(S)-Carnitine hydrochloride, (+)-Carnitine hydrochloride

>  <Target>
Mitochondrial Metabolism

>  <Form>
hydrochloride

>  <CAS>
10017-44-4

>  <URL>
https://www.selleckchem.com/products/d-carnitine-hydrochloride.html

$$$$
