D-Mannose
 OpenBabel08302520343D

 24 24  0  0  0  0  0  0  0  0999 V2000
    0.6319    1.2044   -0.3094 C   0  0  2  0  0  0  0  0  0  0  0  0
    1.3977   -0.0619    0.1050 C   0  0  2  0  0  0  0  0  0  0  0  0
   -0.7528    1.1580    0.0868 O   0  0  0  0  0  0  0  0  0  0  0  0
    0.8118    1.5812   -1.7895 C   0  0  0  0  0  0  0  0  0  0  0  0
    0.6581   -1.3523   -0.2766 C   0  0  1  0  0  0  0  0  0  0  0  0
    1.5963   -0.0552    1.5254 O   0  0  0  0  0  0  0  0  0  0  0  0
   -1.4766   -0.0299   -0.2478 C   0  0  3  0  0  0  0  0  0  0  0  0
    0.2911    2.8888   -2.0322 O   0  0  0  0  0  0  0  0  0  0  0  0
   -0.7727   -1.3028    0.2692 C   0  0  1  0  0  0  0  0  0  0  0  0
    0.6033   -1.5173   -1.7040 O   0  0  0  0  0  0  0  0  0  0  0  0
   -1.7502   -0.0841   -1.6402 O   0  0  0  0  0  0  0  0  0  0  0  0
   -1.4793   -2.4922   -0.0992 O   0  0  0  0  0  0  0  0  0  0  0  0
    1.0346    2.0461    0.2689 H   0  0  0  0  0  0  0  0  0  0  0  0
    2.3934   -0.0539   -0.3539 H   0  0  0  0  0  0  0  0  0  0  0  0
    1.8779    1.6133   -2.0434 H   0  0  0  0  0  0  0  0  0  0  0  0
    0.3257    0.8978   -2.4846 H   0  0  0  0  0  0  0  0  0  0  0  0
    1.1670   -2.2331    0.1334 H   0  0  0  0  0  0  0  0  0  0  0  0
    0.8441    0.4065    1.9408 H   0  0  0  0  0  0  0  0  0  0  0  0
   -2.4528    0.0431    0.2419 H   0  0  0  0  0  0  0  0  0  0  0  0
   -0.5096    2.9756   -1.4705 H   0  0  0  0  0  0  0  0  0  0  0  0
   -0.7376   -1.2738    1.3652 H   0  0  0  0  0  0  0  0  0  0  0  0
    1.5083   -1.7429   -1.9978 H   0  0  0  0  0  0  0  0  0  0  0  0
   -1.0622   -0.6453   -2.0469 H   0  0  0  0  0  0  0  0  0  0  0  0
   -1.4254   -2.5626   -1.0711 H   0  0  0  0  0  0  0  0  0  0  0  0
  1  2  1  0  0  0  0
  1  3  1  0  0  0  0
  1 13  1  1  0  0  0
  1  4  1  0  0  0  0
  2  5  1  0  0  0  0
  2 14  1  6  0  0  0
  2  6  1  0  0  0  0
  3  7  1  0  0  0  0
  4  8  1  0  0  0  0
  4 15  1  0  0  0  0
  4 16  1  0  0  0  0
  5  9  1  0  0  0  0
  5 10  1  0  0  0  0
  5 17  1  1  0  0  0
  6 18  1  0  0  0  0
  7 11  1  0  0  0  0
  7  9  1  0  0  0  0
  7 19  1  0  0  0  0
  8 20  1  0  0  0  0
  9 12  1  0  0  0  0
  9 21  1  1  0  0  0
 10 22  1  0  0  0  0
 11 23  1  0  0  0  0
 12 24  1  0  0  0  0
M  END
>  <Mol_ID>
3404

>  <Formula>
C6H12O6

>  <MolWeight>
180.15588

>  <Cat>
S5763

>  <Name>
D-Mannose

>  <Synonyms>
N/A

>  <Target>
Others

>  <Form>
Free Base

>  <CAS>
3458-28-4

>  <URL>
http://www.selleckchem.com/products/d-mannose.html

$$$$
