d-Neomenthol
 OpenBabel08302521373D

 31 31  0  0  1  0  0  0  0  0999 V2000
    1.0626   -0.0415    0.0060 C   0  0  0  0  0  0  0  0  0  0  0  0
    0.5193    0.8454   -1.1236 C   0  0  0  0  0  0  0  0  0  0  0  0
    0.5033   -1.4564   -0.1923 C   0  0  0  0  0  0  0  0  0  0  0  0
    2.6365    1.9872    1.4824 O   0  0  0  0  0  0  0  0  0  0  0  0
    6.7931    0.4112    1.3817 C   0  0  0  0  0  0  0  0  0  0  0  0
    2.6219   -0.0184    0.0638 C   0  0  1  0  0  0  0  0  0  0  0  0
    3.1862    1.4048    0.3016 C   0  0  2  0  0  0  0  0  0  0  0  0
    3.1760   -0.9919    1.1266 C   0  0  0  0  0  0  0  0  0  0  0  0
    4.7153    1.4150    0.3855 C   0  0  0  0  0  0  0  0  0  0  0  0
    4.7029   -0.9736    1.1954 C   0  0  0  0  0  0  0  0  0  0  0  0
    5.2649    0.4308    1.4260 C   0  0  1  0  0  0  0  0  0  0  0  0
    0.6639    0.3399    0.9545 H   0  0  0  0  0  0  0  0  0  0  0  0
    0.9140    0.5309   -2.0960 H   0  0  0  0  0  0  0  0  0  0  0  0
   -0.5741    0.7866   -1.1715 H   0  0  0  0  0  0  0  0  0  0  0  0
    0.7719    1.8984   -0.9744 H   0  0  0  0  0  0  0  0  0  0  0  0
    0.7300   -2.1045    0.6592 H   0  0  0  0  0  0  0  0  0  0  0  0
   -0.5878   -1.4337   -0.2852 H   0  0  0  0  0  0  0  0  0  0  0  0
    0.9102   -1.9186   -1.0981 H   0  0  0  0  0  0  0  0  0  0  0  0
    2.8699    1.4294    2.2441 H   0  0  0  0  0  0  0  0  0  0  0  0
    7.1997    1.4105    1.5646 H   0  0  0  0  0  0  0  0  0  0  0  0
    7.1946   -0.2617    2.1469 H   0  0  0  0  0  0  0  0  0  0  0  0
    7.1581    0.0707    0.4065 H   0  0  0  0  0  0  0  0  0  0  0  0
    2.9978   -0.3583   -0.9123 H   0  0  0  0  0  0  0  0  0  0  0  0
    2.9037    2.0616   -0.5262 H   0  0  0  0  0  0  0  0  0  0  0  0
    2.8762   -2.0200    0.8965 H   0  0  0  0  0  0  0  0  0  0  0  0
    2.7591   -0.7559    2.1132 H   0  0  0  0  0  0  0  0  0  0  0  0
    5.0592    2.4257    0.6371 H   0  0  0  0  0  0  0  0  0  0  0  0
    5.1241    1.1690   -0.6024 H   0  0  0  0  0  0  0  0  0  0  0  0
    5.1039   -1.3871    0.2611 H   0  0  0  0  0  0  0  0  0  0  0  0
    5.0325   -1.6413    2.0007 H   0  0  0  0  0  0  0  0  0  0  0  0
    4.9650    0.7672    2.4263 H   0  0  0  0  0  0  0  0  0  0  0  0
  1  2  1  0  0  0  0
  1  3  1  0  0  0  0
  1 12  1  0  0  0  0
  2 13  1  0  0  0  0
  2 14  1  0  0  0  0
  2 15  1  0  0  0  0
  3 16  1  0  0  0  0
  3 17  1  0  0  0  0
  3 18  1  0  0  0  0
  4 19  1  0  0  0  0
  5 20  1  0  0  0  0
  5 21  1  0  0  0  0
  5 22  1  0  0  0  0
  6  1  1  0  0  0  0
  6  7  1  0  0  0  0
  6  8  1  0  0  0  0
  6 23  1  6  0  0  0
  7  4  1  0  0  0  0
  7  9  1  0  0  0  0
  7 24  1  6  0  0  0
  8 10  1  0  0  0  0
  8 25  1  0  0  0  0
  8 26  1  0  0  0  0
  9 11  1  0  0  0  0
  9 27  1  0  0  0  0
  9 28  1  0  0  0  0
 10 11  1  0  0  0  0
 10 29  1  0  0  0  0
 10 30  1  0  0  0  0
 11  5  1  0  0  0  0
 11 31  1  1  0  0  0
M  END
>  <Mol_ID>
7464

>  <Formula>
C10H20O

>  <MolWeight>
156.2652

>  <Cat>
E4569

>  <Name>
d-Neomenthol

>  <Synonyms>
d-Neomenthol

>  <Target>
Others

>  <Form>
Free base

>  <CAS>
2216-52-6

>  <URL>
https://www.selleckchem.com/products/d-neomenthol.html

$$$$
