D-Pyroglutamic acid
 OpenBabel08302521293D

 16 16  0  0  0  0  0  0  0  0999 V2000
    1.9128   -0.0451    0.1102 O   0  0  0  0  0  0  0  0  0  0  0  0
   -1.2266   -1.5184    2.3618 O   0  0  0  0  0  0  0  0  0  0  0  0
   -3.2852   -0.7947    1.7687 O   0  0  0  0  0  0  0  0  0  0  0  0
   -0.1229   -1.1066    0.0253 N   0  0  0  0  0  0  0  0  0  0  0  0
   -1.5255   -0.7574    0.0853 C   0  0  2  0  0  0  0  0  0  0  0  0
   -1.5345    0.7273   -0.2511 C   0  0  0  0  0  0  0  0  0  0  0  0
   -0.1675    1.2247    0.2175 C   0  0  0  0  0  0  0  0  0  0  0  0
    0.6989    0.0009    0.0892 C   0  0  0  0  0  0  0  0  0  0  0  0
   -2.1176   -1.0178    1.4726 C   0  0  0  0  0  0  0  0  0  0  0  0
   -0.3335   -1.5962    1.9677 H   0  0  0  0  0  0  0  0  0  0  0  0
    0.2565   -2.0409   -0.0986 H   0  0  0  0  0  0  0  0  0  0  0  0
   -2.0722   -1.3602   -0.6454 H   0  0  0  0  0  0  0  0  0  0  0  0
   -2.3551    1.2864    0.2088 H   0  0  0  0  0  0  0  0  0  0  0  0
   -1.6098    0.8596   -1.3383 H   0  0  0  0  0  0  0  0  0  0  0  0
   -0.1915    1.5298    1.2685 H   0  0  0  0  0  0  0  0  0  0  0  0
    0.2022    2.0404   -0.4080 H   0  0  0  0  0  0  0  0  0  0  0  0
  1  8  2  0  0  0  0
  2  9  1  0  0  0  0
  2 10  1  0  0  0  0
  3  9  2  0  0  0  0
  4  5  1  0  0  0  0
  4  8  1  0  0  0  0
  4 11  1  0  0  0  0
  5  6  1  0  0  0  0
  5  9  1  0  0  0  0
  5 12  1  6  0  0  0
  6  7  1  0  0  0  0
  6 13  1  0  0  0  0
  6 14  1  0  0  0  0
  7  8  1  0  0  0  0
  7 15  1  0  0  0  0
  7 16  1  0  0  0  0
M  END
>  <Mol_ID>
5453

>  <Formula>
C5H7NO3

>  <MolWeight>
129.11398

>  <Cat>
S3107

>  <Name>
D-Pyroglutamic acid

>  <Synonyms>
D-5-Oxoproline, D-Pyr-OH, 5-oxo-D-proline, (R)-5-Oxopyrrolidine-2-carboxylic acid

>  <Target>
Others

>  <Form>
Free Base

>  <CAS>
4042-36-8

>  <URL>
https://www.selleckchem.com/products/d-pyroglutamic-acid.html

$$$$
