D 4476.cdx
 OpenBabel08302519593D

 48 52  0  0  0  0  0  0  0  0999 V2000
   -1.1996   -0.0138   -0.0334 N   0  0  0  0  0  0  0  0  0  0  0  0
   -0.4505   -1.1744   -0.0103 C   0  0  0  0  0  0  0  0  0  0  0  0
    0.9039   -0.8793   -0.0821 C   0  0  0  0  0  0  0  0  0  0  0  0
    0.9426    0.4930    0.0192 N   0  0  0  0  0  0  0  0  0  0  0  0
   -0.3392    0.9863    0.0224 C   0  0  0  0  0  0  0  0  0  0  0  0
   -0.6668    2.4145    0.0649 C   0  0  0  0  0  0  0  0  0  0  0  0
   -1.8274    2.8773   -0.5696 C   0  0  0  0  0  0  0  0  0  0  0  0
   -2.1573    4.2393   -0.5571 C   0  0  0  0  0  0  0  0  0  0  0  0
   -1.3440    5.1566    0.1152 C   0  0  0  0  0  0  0  0  0  0  0  0
   -0.1867    4.7041    0.7593 C   0  0  0  0  0  0  0  0  0  0  0  0
    0.1475    3.3426    0.7322 C   0  0  0  0  0  0  0  0  0  0  0  0
   -1.7334    6.5924    0.0971 C   0  0  0  0  0  0  0  0  0  0  0  0
   -1.2786    7.3850    1.1146 N   0  0  0  0  0  0  0  0  0  0  0  0
   -2.4616    7.0517   -0.7739 O   0  0  0  0  0  0  0  0  0  0  0  0
   -1.0630   -2.4936    0.0909 C   0  0  0  0  0  0  0  0  0  0  0  0
    2.1181   -1.6747   -0.1611 C   0  0  0  0  0  0  0  0  0  0  0  0
    2.1864   -2.8696   -0.8728 C   0  0  0  0  0  0  0  0  0  0  0  0
    3.3200   -3.6642   -0.7373 C   0  0  0  0  0  0  0  0  0  0  0  0
    4.3660   -3.2193    0.0602 C   0  0  0  0  0  0  0  0  0  0  0  0
    4.2419   -1.9824    0.6730 C   0  0  0  0  0  0  0  0  0  0  0  0
    3.1455   -1.1945    0.5762 N   0  0  0  0  0  0  0  0  0  0  0  0
   -0.4230   -3.5468    0.7619 C   0  0  0  0  0  0  0  0  0  0  0  0
   -0.9791   -4.8222    0.7778 C   0  0  0  0  0  0  0  0  0  0  0  0
   -2.2503   -5.0382    0.2434 C   0  0  0  0  0  0  0  0  0  0  0  0
   -2.9203   -3.9946   -0.3907 C   0  0  0  0  0  0  0  0  0  0  0  0
   -2.3228   -2.7300   -0.4772 C   0  0  0  0  0  0  0  0  0  0  0  0
   -0.2107   -5.8195    1.3260 O   0  0  0  0  0  0  0  0  0  0  0  0
   -0.7252   -7.1100    0.9747 C   0  0  0  0  0  0  0  0  0  0  0  0
   -2.2244   -7.1391    1.2204 C   0  0  0  0  0  0  0  0  0  0  0  0
   -2.8889   -6.2515    0.3081 O   0  0  0  0  0  0  0  0  0  0  0  0
    1.7939    1.0339    0.0544 H   0  0  0  0  0  0  0  0  0  0  0  0
   -2.4793    2.1766   -1.0874 H   0  0  0  0  0  0  0  0  0  0  0  0
   -3.0554    4.5783   -1.0704 H   0  0  0  0  0  0  0  0  0  0  0  0
    0.4781    5.3964    1.2678 H   0  0  0  0  0  0  0  0  0  0  0  0
    1.0442    3.0187    1.2550 H   0  0  0  0  0  0  0  0  0  0  0  0
   -1.6525    8.3239    1.1408 H   0  0  0  0  0  0  0  0  0  0  0  0
   -0.9103    7.0050    1.9744 H   0  0  0  0  0  0  0  0  0  0  0  0
    1.3544   -3.2111   -1.4800 H   0  0  0  0  0  0  0  0  0  0  0  0
    3.3703   -4.6312   -1.2302 H   0  0  0  0  0  0  0  0  0  0  0  0
    5.2544   -3.8241    0.2026 H   0  0  0  0  0  0  0  0  0  0  0  0
    5.0422   -1.5885    1.2936 H   0  0  0  0  0  0  0  0  0  0  0  0
    0.5289   -3.3980    1.2635 H   0  0  0  0  0  0  0  0  0  0  0  0
   -3.9057   -4.1599   -0.8164 H   0  0  0  0  0  0  0  0  0  0  0  0
   -2.8497   -1.9235   -0.9840 H   0  0  0  0  0  0  0  0  0  0  0  0
   -0.2150   -7.8528    1.5942 H   0  0  0  0  0  0  0  0  0  0  0  0
   -0.4838   -7.3153   -0.0767 H   0  0  0  0  0  0  0  0  0  0  0  0
   -2.4653   -6.8349    2.2470 H   0  0  0  0  0  0  0  0  0  0  0  0
   -2.6211   -8.1455    1.0576 H   0  0  0  0  0  0  0  0  0  0  0  0
  1  2  1  0  0  0  0
  2  3  2  0  0  0  0
  2 15  1  0  0  0  0
  3  4  1  0  0  0  0
  3 16  1  0  0  0  0
  4  5  1  0  0  0  0
  4 31  1  0  0  0  0
  5  1  2  0  0  0  0
  5  6  1  0  0  0  0
  6  7  2  0  0  0  0
  7  8  1  0  0  0  0
  7 32  1  0  0  0  0
  8  9  2  0  0  0  0
  8 33  1  0  0  0  0
  9 10  1  0  0  0  0
  9 12  1  0  0  0  0
 10 11  2  0  0  0  0
 10 34  1  0  0  0  0
 11  6  1  0  0  0  0
 11 35  1  0  0  0  0
 12 13  1  0  0  0  0
 12 14  2  0  0  0  0
 13 36  1  0  0  0  0
 13 37  1  0  0  0  0
 15 22  2  0  0  0  0
 16 17  2  0  0  0  0
 17 18  1  0  0  0  0
 17 38  1  0  0  0  0
 18 19  2  0  0  0  0
 18 39  1  0  0  0  0
 19 20  1  0  0  0  0
 19 40  1  0  0  0  0
 20 21  2  0  0  0  0
 20 41  1  0  0  0  0
 21 16  1  0  0  0  0
 22 23  1  0  0  0  0
 22 42  1  0  0  0  0
 23 24  2  0  0  0  0
 23 27  1  0  0  0  0
 24 25  1  0  0  0  0
 25 26  2  0  0  0  0
 25 43  1  0  0  0  0
 26 15  1  0  0  0  0
 26 44  1  0  0  0  0
 27 28  1  0  0  0  0
 28 29  1  0  0  0  0
 28 45  1  0  0  0  0
 28 46  1  0  0  0  0
 29 30  1  0  0  0  0
 29 47  1  0  0  0  0
 29 48  1  0  0  0  0
 30 24  1  0  0  0  0
M  END
>  <Mol_ID>
2593

>  <Formula>
C23H18N4O3

>  <MolWeight>
398.41402

>  <Cat>
S7642

>  <Name>
D 4476

>  <Synonyms>
N/A

>  <Target>
Casein Kinase

>  <Form>
free base

>  <CAS>
301836-43-1

>  <URL>
http://selleckchem.com/products/d-4476.html

$$$$
