Danirixin (GSK1325756)
 OpenBabel08302521223D

 50 52  0  0  0  0  0  0  0  0999 V2000
    2.9530   -0.7991   -1.5040 S   0  0  0  0  0  0  0  0  0  0  0  0
    2.4839   -7.8997    6.2660 F   0  0  0  0  0  0  0  0  0  0  0  0
    1.7097   -1.4731   -1.1615 O   0  0  0  0  0  0  0  0  0  0  0  0
    3.0835   -0.1556   -2.8000 O   0  0  0  0  0  0  0  0  0  0  0  0
    2.9140   -3.3984    0.1129 O   0  0  0  0  0  0  0  0  0  0  0  0
    4.6006   -3.7184    2.2313 O   0  0  0  0  0  0  0  0  0  0  0  0
    3.7944    0.8725    2.1363 N   0  0  0  0  0  0  0  0  0  0  0  0
    5.1640   -5.1285    0.4775 N   0  0  0  0  0  0  0  0  0  0  0  0
    4.9445   -5.9878    2.5961 N   0  0  0  0  0  0  0  0  0  0  0  0
    3.3073    0.4310   -0.2507 C   0  0  1  0  0  0  0  0  0  0  0  0
    2.1523    1.4477   -0.1903 C   0  0  0  0  0  0  0  0  0  0  0  0
    3.5355   -0.1753    1.1332 C   0  0  0  0  0  0  0  0  0  0  0  0
    2.3689    2.4743    0.9184 C   0  0  0  0  0  0  0  0  0  0  0  0
    2.6671    1.7981    2.2538 C   0  0  0  0  0  0  0  0  0  0  0  0
    4.2110   -2.0529   -1.4328 C   0  0  0  0  0  0  0  0  0  0  0  0
    4.0676   -3.1634   -0.5921 C   0  0  0  0  0  0  0  0  0  0  0  0
    5.2882   -1.9858   -2.3242 C   0  0  0  0  0  0  0  0  0  0  0  0
    5.0909   -4.1297   -0.5295 C   0  0  0  0  0  0  0  0  0  0  0  0
    6.2037   -3.0394   -2.3842 C   0  0  0  0  0  0  0  0  0  0  0  0
    6.1063   -4.1075   -1.4905 C   0  0  0  0  0  0  0  0  0  0  0  0
    4.8628   -4.8405    1.8061 C   0  0  0  0  0  0  0  0  0  0  0  0
    4.5445   -5.9905    3.9598 C   0  0  0  0  0  0  0  0  0  0  0  0
    3.8324   -7.0773    4.4955 C   0  0  0  0  0  0  0  0  0  0  0  0
    4.8024   -4.8728    4.7739 C   0  0  0  0  0  0  0  0  0  0  0  0
    3.2687   -6.9288    5.7740 C   0  0  0  0  0  0  0  0  0  0  0  0
    3.5172   -8.3404    3.7487 C   0  0  0  0  0  0  0  0  0  0  0  0
    4.2622   -4.7660    6.0558 C   0  0  0  0  0  0  0  0  0  0  0  0
    3.4625   -5.7874    6.5451 C   0  0  0  0  0  0  0  0  0  0  0  0
    2.1590   -2.9311   -0.3029 H   0  0  0  0  0  0  0  0  0  0  0  0
    3.9551    0.4257    3.0414 H   0  0  0  0  0  0  0  0  0  0  0  0
    5.8818   -5.8300    0.3649 H   0  0  0  0  0  0  0  0  0  0  0  0
    4.8439   -6.8486    2.0819 H   0  0  0  0  0  0  0  0  0  0  0  0
    4.2189    0.9471   -0.5797 H   0  0  0  0  0  0  0  0  0  0  0  0
    2.0398    1.9611   -1.1521 H   0  0  0  0  0  0  0  0  0  0  0  0
    1.2038    0.9263   -0.0050 H   0  0  0  0  0  0  0  0  0  0  0  0
    2.6793   -0.7853    1.4462 H   0  0  0  0  0  0  0  0  0  0  0  0
    4.4094   -0.8329    1.1155 H   0  0  0  0  0  0  0  0  0  0  0  0
    3.1998    3.1363    0.6448 H   0  0  0  0  0  0  0  0  0  0  0  0
    1.4778    3.1059    1.0160 H   0  0  0  0  0  0  0  0  0  0  0  0
    2.9114    2.5659    2.9967 H   0  0  0  0  0  0  0  0  0  0  0  0
    1.7789    1.2692    2.6208 H   0  0  0  0  0  0  0  0  0  0  0  0
    5.3990   -1.1455   -3.0081 H   0  0  0  0  0  0  0  0  0  0  0  0
    7.0056   -3.0188   -3.1205 H   0  0  0  0  0  0  0  0  0  0  0  0
    6.8469   -4.9008   -1.5398 H   0  0  0  0  0  0  0  0  0  0  0  0
    5.4127   -4.0496    4.4069 H   0  0  0  0  0  0  0  0  0  0  0  0
    3.5885   -9.2036    4.4205 H   0  0  0  0  0  0  0  0  0  0  0  0
    2.5020   -8.2916    3.3432 H   0  0  0  0  0  0  0  0  0  0  0  0
    4.2155   -8.5375    2.9320 H   0  0  0  0  0  0  0  0  0  0  0  0
    4.4413   -3.8723    6.6471 H   0  0  0  0  0  0  0  0  0  0  0  0
    2.9843   -5.7037    7.5153 H   0  0  0  0  0  0  0  0  0  0  0  0
  1  3  2  0  0  0  0
  1  4  2  0  0  0  0
  1 15  1  0  0  0  0
  2 25  1  0  0  0  0
  5 16  1  0  0  0  0
  5 29  1  0  0  0  0
  6 21  2  0  0  0  0
  7 12  1  0  0  0  0
  7 14  1  0  0  0  0
  7 30  1  0  0  0  0
  8 18  1  0  0  0  0
  8 21  1  0  0  0  0
  8 31  1  0  0  0  0
  9 21  1  0  0  0  0
  9 22  1  0  0  0  0
  9 32  1  0  0  0  0
 10 11  1  0  0  0  0
 10 12  1  0  0  0  0
 10 33  1  6  0  0  0
 10  1  1  0  0  0  0
 11 13  1  0  0  0  0
 11 34  1  0  0  0  0
 11 35  1  0  0  0  0
 12 36  1  0  0  0  0
 12 37  1  0  0  0  0
 13 14  1  0  0  0  0
 13 38  1  0  0  0  0
 13 39  1  0  0  0  0
 14 40  1  0  0  0  0
 14 41  1  0  0  0  0
 15 16  2  0  0  0  0
 15 17  1  0  0  0  0
 16 18  1  0  0  0  0
 17 19  2  0  0  0  0
 17 42  1  0  0  0  0
 18 20  2  0  0  0  0
 19 20  1  0  0  0  0
 19 43  1  0  0  0  0
 20 44  1  0  0  0  0
 22 23  2  0  0  0  0
 22 24  1  0  0  0  0
 23 25  1  0  0  0  0
 23 26  1  0  0  0  0
 24 27  2  0  0  0  0
 24 45  1  0  0  0  0
 25 28  2  0  0  0  0
 26 46  1  0  0  0  0
 26 47  1  0  0  0  0
 26 48  1  0  0  0  0
 27 28  1  0  0  0  0
 27 49  1  0  0  0  0
 28 50  1  0  0  0  0
M  END
>  <Mol_ID>
4743

>  <Formula>
C19H21ClFN3O4S

>  <MolWeight>
441.9041432

>  <Cat>
S6620

>  <Name>
Danirixin (GSK1325756)

>  <Synonyms>
N/A

>  <Target>
CXCR,Interleukins

>  <Form>
Free Base

>  <CAS>
954126-98-8

>  <URL>
http://www.selleck.cn/products/danirixin.html

$$$$
