Dapagliflozin (BMS-512148).cdx
 OpenBabel08302520143D

 53 55  0  0  0  0  0  0  0  0999 V2000
    3.7057    0.7670    0.3149 C   0  0  0  0  0  0  0  0  0  0  0  0
    5.1038    0.7802    0.4118 C   0  0  0  0  0  0  0  0  0  0  0  0
    5.8078    1.9824    0.3327 C   0  0  0  0  0  0  0  0  0  0  0  0
    5.1258    3.1845    0.1385 C   0  0  0  0  0  0  0  0  0  0  0  0
    3.7320    3.1956    0.0220 C   0  0  0  0  0  0  0  0  0  0  0  0
    3.0336    1.9861    0.1363 C   0  0  0  0  0  0  0  0  0  0  0  0
    3.2169    6.6171    1.0973 C   0  0  0  0  0  0  0  0  0  0  0  0
    2.7333    5.3036    1.0110 C   0  0  0  0  0  0  0  0  0  0  0  0
    2.9779    4.4798   -0.2280 C   0  0  0  0  0  0  0  0  0  0  0  0
    3.0010    7.3694    2.2488 C   0  0  0  0  0  0  0  0  0  0  0  0
    2.2854    6.8448    3.3237 C   0  0  0  0  0  0  0  0  0  0  0  0
    1.7856    5.5444    3.2432 C   0  0  0  0  0  0  0  0  0  0  0  0
    2.0039    4.7846    2.0916 C   0  0  0  0  0  0  0  0  0  0  0  0
    2.1745    7.6710    4.4062 O   0  0  0  0  0  0  0  0  0  0  0  0
    1.1029    7.3966    5.3066 C   0  0  0  0  0  0  0  0  0  0  0  0
    1.1468    8.4353    6.4127 C   0  0  0  0  0  0  0  0  0  0  0  0
    2.9047   -0.5236    0.3208 C   0  0  2  0  0  0  0  0  0  0  0  0
    3.6531   -1.5298    1.0162 O   0  0  0  0  0  0  0  0  0  0  0  0
    2.9678   -2.7879    1.1070 C   0  0  1  0  0  0  0  0  0  0  0  0
    2.7015   -3.3640   -0.2852 C   0  0  2  0  0  0  0  0  0  0  0  0
    1.9015   -2.3466   -1.1105 C   0  0  1  0  0  0  0  0  0  0  0  0
    2.5845   -0.9702   -1.1265 C   0  0  1  0  0  0  0  0  0  0  0  0
    3.8480   -3.7247    1.9419 C   0  0  0  0  0  0  0  0  0  0  0  0
    1.6948   -2.8401   -2.4391 O   0  0  0  0  0  0  0  0  0  0  0  0
    2.0061   -4.6074   -0.1721 O   0  0  0  0  0  0  0  0  0  0  0  0
    1.7439   -0.0317   -1.8150 O   0  0  0  0  0  0  0  0  0  0  0  0
    4.0643   -3.1437    3.2299 O   0  0  0  0  0  0  0  0  0  0  0  0
    5.6589   -0.1460    0.5413 H   0  0  0  0  0  0  0  0  0  0  0  0
    6.8920    1.9807    0.4104 H   0  0  0  0  0  0  0  0  0  0  0  0
    5.6905    4.1120    0.0676 H   0  0  0  0  0  0  0  0  0  0  0  0
    1.9483    1.9913    0.0483 H   0  0  0  0  0  0  0  0  0  0  0  0
    3.7692    7.0540    0.2702 H   0  0  0  0  0  0  0  0  0  0  0  0
    3.5354    5.0675   -0.9744 H   0  0  0  0  0  0  0  0  0  0  0  0
    2.0120    4.2675   -0.7008 H   0  0  0  0  0  0  0  0  0  0  0  0
    3.3939    8.3850    2.3085 H   0  0  0  0  0  0  0  0  0  0  0  0
    1.2480    5.0842    4.0620 H   0  0  0  0  0  0  0  0  0  0  0  0
    1.6137    3.7689    2.0542 H   0  0  0  0  0  0  0  0  0  0  0  0
    0.1455    7.4634    4.7768 H   0  0  0  0  0  0  0  0  0  0  0  0
    1.2124    6.4060    5.7617 H   0  0  0  0  0  0  0  0  0  0  0  0
    1.1119    9.4475    5.9979 H   0  0  0  0  0  0  0  0  0  0  0  0
    0.3107    8.3027    7.1044 H   0  0  0  0  0  0  0  0  0  0  0  0
    2.0836    8.3522    6.9740 H   0  0  0  0  0  0  0  0  0  0  0  0
    1.9772   -0.3416    0.8791 H   0  0  0  0  0  0  0  0  0  0  0  0
    2.0275   -2.6317    1.6517 H   0  0  0  0  0  0  0  0  0  0  0  0
    3.6474   -3.5698   -0.8026 H   0  0  0  0  0  0  0  0  0  0  0  0
    0.8918   -2.2485   -0.6914 H   0  0  0  0  0  0  0  0  0  0  0  0
    3.5119   -1.0385   -1.7099 H   0  0  0  0  0  0  0  0  0  0  0  0
    3.3819   -4.7037    2.0834 H   0  0  0  0  0  0  0  0  0  0  0  0
    4.8299   -3.8615    1.4766 H   0  0  0  0  0  0  0  0  0  0  0  0
    2.4964   -2.6576   -2.9627 H   0  0  0  0  0  0  0  0  0  0  0  0
    1.0703   -4.4670   -0.4037 H   0  0  0  0  0  0  0  0  0  0  0  0
    0.8283   -0.1379   -1.5061 H   0  0  0  0  0  0  0  0  0  0  0  0
    4.3469   -2.2243    3.0574 H   0  0  0  0  0  0  0  0  0  0  0  0
  1  2  2  0  0  0  0
  2  3  1  0  0  0  0
  2 28  1  0  0  0  0
  3  4  2  0  0  0  0
  3 29  1  0  0  0  0
  4  5  1  0  0  0  0
  4 30  1  0  0  0  0
  5  6  2  0  0  0  0
  6  1  1  0  0  0  0
  6 31  1  0  0  0  0
  7  8  2  0  0  0  0
  7 10  1  0  0  0  0
  7 32  1  0  0  0  0
  8  9  1  0  0  0  0
  9  5  1  0  0  0  0
  9 33  1  0  0  0  0
  9 34  1  0  0  0  0
 10 11  2  0  0  0  0
 10 35  1  0  0  0  0
 11 12  1  0  0  0  0
 11 14  1  0  0  0  0
 12 13  2  0  0  0  0
 12 36  1  0  0  0  0
 13  8  1  0  0  0  0
 13 37  1  0  0  0  0
 14 15  1  0  0  0  0
 15 16  1  0  0  0  0
 15 38  1  0  0  0  0
 15 39  1  0  0  0  0
 16 40  1  0  0  0  0
 16 41  1  0  0  0  0
 16 42  1  0  0  0  0
 17 18  1  0  0  0  0
 17 43  1  1  0  0  0
 17  1  1  0  0  0  0
 18 19  1  0  0  0  0
 19 20  1  0  0  0  0
 19 23  1  0  0  0  0
 19 44  1  1  0  0  0
 20 21  1  0  0  0  0
 20 25  1  0  0  0  0
 20 45  1  6  0  0  0
 21 22  1  0  0  0  0
 21 24  1  0  0  0  0
 21 46  1  1  0  0  0
 22 17  1  0  0  0  0
 22 26  1  0  0  0  0
 22 47  1  6  0  0  0
 23 27  1  0  0  0  0
 23 48  1  0  0  0  0
 23 49  1  0  0  0  0
 24 50  1  0  0  0  0
 25 51  1  0  0  0  0
 26 52  1  0  0  0  0
 27 53  1  0  0  0  0
M  END
>  <Mol_ID>
315

>  <Formula>
C21H25ClO6

>  <MolWeight>
408.8726

>  <Cat>
S1548

>  <Name>
Dapagliflozin (BMS-512148)

>  <Synonyms>
BMS-512148

>  <Target>
SGLT

>  <Form>
free base

>  <CAS>
461432-26-8

>  <URL>
http://selleckchem.com/products/Dapagliflozin.html

$$$$
