Daprodustat (GSK1278863).cdx
 OpenBabel08302520413D

 55 57  0  0  0  0  0  0  0  0999 V2000
   -0.0302   -1.5973    0.0505 C   0  0  0  0  0  0  0  0  0  0  0  0
    1.2508   -0.8441    0.0200 C   0  0  0  0  0  0  0  0  0  0  0  0
    1.1993    0.5358   -0.0336 N   0  0  0  0  0  0  0  0  0  0  0  0
    0.0243    1.2778   -0.0010 C   0  0  0  0  0  0  0  0  0  0  0  0
   -1.1794    0.5807   -0.0037 N   0  0  0  0  0  0  0  0  0  0  0  0
   -1.2828   -0.7989   -0.0135 C   0  0  0  0  0  0  0  0  0  0  0  0
   -2.3612   -1.3927   -0.1055 O   0  0  0  0  0  0  0  0  0  0  0  0
   -0.0542   -2.5196    1.2482 C   0  0  0  0  0  0  0  0  0  0  0  0
   -0.1593   -3.8563    0.9558 N   0  0  0  0  0  0  0  0  0  0  0  0
    0.0301   -2.0937    2.3973 O   0  0  0  0  0  0  0  0  0  0  0  0
   -0.1490   -4.8681    2.0026 C   0  0  0  0  0  0  0  0  0  0  0  0
   -0.3273   -6.2702    1.4424 C   0  0  0  0  0  0  0  0  0  0  0  0
   -0.3249   -7.3097    2.0821 O   0  0  0  0  0  0  0  0  0  0  0  0
   -0.5181   -6.3007    0.1010 O   0  0  0  0  0  0  0  0  0  0  0  0
    2.3076   -1.4816    0.0087 O   0  0  0  0  0  0  0  0  0  0  0  0
    0.0544    2.5106    0.0075 O   0  0  0  0  0  0  0  0  0  0  0  0
   -2.4469    1.3540   -0.0355 C   0  0  0  0  0  0  0  0  0  0  0  0
   -2.5930    2.1880   -1.3229 C   0  0  0  0  0  0  0  0  0  0  0  0
   -3.8634    3.0332   -1.3255 C   0  0  0  0  0  0  0  0  0  0  0  0
   -3.9623    3.8900   -0.0687 C   0  0  0  0  0  0  0  0  0  0  0  0
   -3.9268    3.0274    1.1879 C   0  0  0  0  0  0  0  0  0  0  0  0
   -2.6600    2.1774    1.2497 C   0  0  0  0  0  0  0  0  0  0  0  0
    2.4752    1.2926   -0.1031 C   0  0  0  0  0  0  0  0  0  0  0  0
    3.2716    0.9617   -1.3819 C   0  0  0  0  0  0  0  0  0  0  0  0
    4.6137    1.6831   -1.4317 C   0  0  0  0  0  0  0  0  0  0  0  0
    5.4243    1.4340   -0.1648 C   0  0  0  0  0  0  0  0  0  0  0  0
    4.6541    1.8745    1.0754 C   0  0  0  0  0  0  0  0  0  0  0  0
    3.3095    1.1579    1.1847 C   0  0  0  0  0  0  0  0  0  0  0  0
   -0.0253   -2.1937   -0.8725 H   0  0  0  0  0  0  0  0  0  0  0  0
   -0.2971   -4.1927    0.0067 H   0  0  0  0  0  0  0  0  0  0  0  0
    0.8126   -4.8085    2.5206 H   0  0  0  0  0  0  0  0  0  0  0  0
   -0.9666   -4.6541    2.6946 H   0  0  0  0  0  0  0  0  0  0  0  0
   -0.6384   -7.2558   -0.0899 H   0  0  0  0  0  0  0  0  0  0  0  0
   -3.2841    0.6445   -0.0601 H   0  0  0  0  0  0  0  0  0  0  0  0
   -1.7410    2.8615   -1.4667 H   0  0  0  0  0  0  0  0  0  0  0  0
   -2.5967    1.5199   -2.1940 H   0  0  0  0  0  0  0  0  0  0  0  0
   -3.8733    3.6770   -2.2127 H   0  0  0  0  0  0  0  0  0  0  0  0
   -4.7405    2.3787   -1.3957 H   0  0  0  0  0  0  0  0  0  0  0  0
   -3.1323    4.6083   -0.0460 H   0  0  0  0  0  0  0  0  0  0  0  0
   -4.8896    4.4724   -0.0909 H   0  0  0  0  0  0  0  0  0  0  0  0
   -3.9804    3.6672    2.0763 H   0  0  0  0  0  0  0  0  0  0  0  0
   -4.8085    2.3759    1.2100 H   0  0  0  0  0  0  0  0  0  0  0  0
   -2.7202    1.4984    2.1099 H   0  0  0  0  0  0  0  0  0  0  0  0
   -1.8119    2.8393    1.4465 H   0  0  0  0  0  0  0  0  0  0  0  0
    2.2465    2.3623   -0.1849 H   0  0  0  0  0  0  0  0  0  0  0  0
    3.4650   -0.1110   -1.4699 H   0  0  0  0  0  0  0  0  0  0  0  0
    2.6750    1.2343   -2.2615 H   0  0  0  0  0  0  0  0  0  0  0  0
    5.1788    1.3384   -2.3052 H   0  0  0  0  0  0  0  0  0  0  0  0
    4.4496    2.7597   -1.5606 H   0  0  0  0  0  0  0  0  0  0  0  0
    5.6663    0.3663   -0.0863 H   0  0  0  0  0  0  0  0  0  0  0  0
    6.3745    1.9751   -0.2232 H   0  0  0  0  0  0  0  0  0  0  0  0
    5.2516    1.6727    1.9717 H   0  0  0  0  0  0  0  0  0  0  0  0
    4.4917    2.9590    1.0386 H   0  0  0  0  0  0  0  0  0  0  0  0
    2.7460    1.5736    2.0299 H   0  0  0  0  0  0  0  0  0  0  0  0
    3.4945    0.1073    1.4307 H   0  0  0  0  0  0  0  0  0  0  0  0
  1  2  1  0  0  0  0
  1  8  1  0  0  0  0
  1 29  1  0  0  0  0
  2  3  1  0  0  0  0
  2 15  2  0  0  0  0
  3  4  1  0  0  0  0
  3 23  1  0  0  0  0
  4  5  1  0  0  0  0
  4 16  2  0  0  0  0
  5  6  1  0  0  0  0
  5 17  1  0  0  0  0
  6  1  1  0  0  0  0
  6  7  2  0  0  0  0
  8  9  1  0  0  0  0
  8 10  2  0  0  0  0
  9 11  1  0  0  0  0
  9 30  1  0  0  0  0
 11 12  1  0  0  0  0
 11 31  1  0  0  0  0
 11 32  1  0  0  0  0
 12 13  2  0  0  0  0
 12 14  1  0  0  0  0
 14 33  1  0  0  0  0
 17 18  1  0  0  0  0
 17 34  1  0  0  0  0
 18 19  1  0  0  0  0
 18 35  1  0  0  0  0
 18 36  1  0  0  0  0
 19 20  1  0  0  0  0
 19 37  1  0  0  0  0
 19 38  1  0  0  0  0
 20 21  1  0  0  0  0
 20 39  1  0  0  0  0
 20 40  1  0  0  0  0
 21 22  1  0  0  0  0
 21 41  1  0  0  0  0
 21 42  1  0  0  0  0
 22 17  1  0  0  0  0
 22 43  1  0  0  0  0
 22 44  1  0  0  0  0
 23 24  1  0  0  0  0
 23 45  1  0  0  0  0
 24 25  1  0  0  0  0
 24 46  1  0  0  0  0
 24 47  1  0  0  0  0
 25 26  1  0  0  0  0
 25 48  1  0  0  0  0
 25 49  1  0  0  0  0
 26 27  1  0  0  0  0
 26 50  1  0  0  0  0
 26 51  1  0  0  0  0
 27 28  1  0  0  0  0
 27 52  1  0  0  0  0
 27 53  1  0  0  0  0
 28 23  1  0  0  0  0
 28 54  1  0  0  0  0
 28 55  1  0  0  0  0
M  END
>  <Mol_ID>
3917

>  <Formula>
C19H27N3O6

>  <MolWeight>
393.43418

>  <Cat>
S8171

>  <Name>
Daprodustat (GSK1278863)

>  <Synonyms>
N/A

>  <Target>
HIF

>  <Form>
free base

>  <CAS>
960539-70-2

>  <URL>
http://selleckchem.com/products/daprodustat.html

$$$$
