Decamethonium bromide.cdx
 OpenBabel08302522033D

 58 55  0  0  0  0  0  0  0  0999 V2000
    1.2440   -0.1847   -0.1086 N   0  3  0  0  0  0  0  0  0  0  0  0
    0.7420    0.6478    1.0817 C   0  0  0  0  0  0  0  0  0  0  0  0
    0.6295    0.1746   -1.4329 C   0  0  0  0  0  0  0  0  0  0  0  0
    0.8629   -1.6433    0.2072 C   0  0  0  0  0  0  0  0  0  0  0  0
    2.7712   -0.1222   -0.1765 C   0  0  0  0  0  0  0  0  0  0  0  0
    1.0768    2.1393    1.0296 C   0  0  0  0  0  0  0  0  0  0  0  0
    0.3569    3.0226    0.0093 C   0  0  0  0  0  0  0  0  0  0  0  0
   -1.1711    3.0203    0.0954 C   0  0  0  0  0  0  0  0  0  0  0  0
   -1.7202    3.5512    1.4196 C   0  0  0  0  0  0  0  0  0  0  0  0
   -1.3575    5.0175    1.6683 C   0  0  0  0  0  0  0  0  0  0  0  0
   -1.7339    5.5013    3.0709 C   0  0  0  0  0  0  0  0  0  0  0  0
   -0.9880    4.7987    4.2183 C   0  0  0  0  0  0  0  0  0  0  0  0
    0.5440    4.8209    4.1328 C   0  0  0  0  0  0  0  0  0  0  0  0
    1.1110    6.2392    4.1603 C   0  0  0  0  0  0  0  0  0  0  0  0
    2.6368    6.3164    4.0337 N   0  3  0  0  0  0  0  0  0  0  0  0
    3.1173    5.7579    2.6946 C   0  0  0  0  0  0  0  0  0  0  0  0
    3.0463    7.7789    4.1116 C   0  0  0  0  0  0  0  0  0  0  0  0
    3.3409    5.5383    5.1481 C   0  0  0  0  0  0  0  0  0  0  0  0
    4.7868    2.4689    2.5450 Br  0  5  0  0  0  0  0  0  0  0  0  0
    0.9009   -3.5523    3.3972 Br  0  5  0  0  0  0  0  0  0  0  0  0
   -0.3390    0.4885    1.1663 H   0  0  0  0  0  0  0  0  0  0  0  0
    1.2069    0.2171    1.9786 H   0  0  0  0  0  0  0  0  0  0  0  0
    0.7624   -0.6611   -2.1281 H   0  0  0  0  0  0  0  0  0  0  0  0
   -0.4362    0.3719   -1.2909 H   0  0  0  0  0  0  0  0  0  0  0  0
    1.1495    1.0371   -1.8500 H   0  0  0  0  0  0  0  0  0  0  0  0
    1.1575   -2.2671   -0.6430 H   0  0  0  0  0  0  0  0  0  0  0  0
    1.4231   -1.9323    1.0870 H   0  0  0  0  0  0  0  0  0  0  0  0
   -0.2202   -1.6898    0.3565 H   0  0  0  0  0  0  0  0  0  0  0  0
    3.0700    0.8907   -0.4574 H   0  0  0  0  0  0  0  0  0  0  0  0
    3.1795   -0.4019    0.7982 H   0  0  0  0  0  0  0  0  0  0  0  0
    3.1014   -0.8236   -0.9478 H   0  0  0  0  0  0  0  0  0  0  0  0
    0.8702    2.5358    2.0282 H   0  0  0  0  0  0  0  0  0  0  0  0
    2.1486    2.2817    0.8895 H   0  0  0  0  0  0  0  0  0  0  0  0
    0.7336    4.0446    0.1276 H   0  0  0  0  0  0  0  0  0  0  0  0
    0.6528    2.7615   -1.0057 H   0  0  0  0  0  0  0  0  0  0  0  0
   -1.5686    3.6252   -0.7282 H   0  0  0  0  0  0  0  0  0  0  0  0
   -1.5554    2.0069   -0.0642 H   0  0  0  0  0  0  0  0  0  0  0  0
   -2.8136    3.4549    1.4076 H   0  0  0  0  0  0  0  0  0  0  0  0
   -1.3682    2.9112    2.2337 H   0  0  0  0  0  0  0  0  0  0  0  0
   -0.2916    5.2000    1.5131 H   0  0  0  0  0  0  0  0  0  0  0  0
   -1.8767    5.6371    0.9260 H   0  0  0  0  0  0  0  0  0  0  0  0
   -1.5437    6.5785    3.1237 H   0  0  0  0  0  0  0  0  0  0  0  0
   -2.8112    5.3733    3.2177 H   0  0  0  0  0  0  0  0  0  0  0  0
   -1.2984    5.2625    5.1623 H   0  0  0  0  0  0  0  0  0  0  0  0
   -1.3173    3.7548    4.2766 H   0  0  0  0  0  0  0  0  0  0  0  0
    0.9354    4.2372    4.9742 H   0  0  0  0  0  0  0  0  0  0  0  0
    0.8541    4.2971    3.2260 H   0  0  0  0  0  0  0  0  0  0  0  0
    0.7050    6.8426    3.3338 H   0  0  0  0  0  0  0  0  0  0  0  0
    0.8451    6.7257    5.1045 H   0  0  0  0  0  0  0  0  0  0  0  0
    2.6155    6.3091    1.8944 H   0  0  0  0  0  0  0  0  0  0  0  0
    4.2003    5.8954    2.6339 H   0  0  0  0  0  0  0  0  0  0  0  0
    2.8467    4.7081    2.6398 H   0  0  0  0  0  0  0  0  0  0  0  0
    2.7237    8.1745    5.0798 H   0  0  0  0  0  0  0  0  0  0  0  0
    4.1324    7.8477    4.0132 H   0  0  0  0  0  0  0  0  0  0  0  0
    2.5550    8.3186    3.2974 H   0  0  0  0  0  0  0  0  0  0  0  0
    2.8970    5.8378    6.1021 H   0  0  0  0  0  0  0  0  0  0  0  0
    3.2085    4.4672    4.9818 H   0  0  0  0  0  0  0  0  0  0  0  0
    4.4042    5.7968    5.1301 H   0  0  0  0  0  0  0  0  0  0  0  0
  1  2  1  0  0  0  0
  1  3  1  0  0  0  0
  1  4  1  0  0  0  0
  1  5  1  0  0  0  0
  2  6  1  0  0  0  0
  2 21  1  0  0  0  0
  2 22  1  0  0  0  0
  3 23  1  0  0  0  0
  3 24  1  0  0  0  0
  3 25  1  0  0  0  0
  4 26  1  0  0  0  0
  4 27  1  0  0  0  0
  4 28  1  0  0  0  0
  5 29  1  0  0  0  0
  5 30  1  0  0  0  0
  5 31  1  0  0  0  0
  6  7  1  0  0  0  0
  6 32  1  0  0  0  0
  6 33  1  0  0  0  0
  7  8  1  0  0  0  0
  7 34  1  0  0  0  0
  7 35  1  0  0  0  0
  8  9  1  0  0  0  0
  8 36  1  0  0  0  0
  8 37  1  0  0  0  0
  9 10  1  0  0  0  0
  9 38  1  0  0  0  0
  9 39  1  0  0  0  0
 10 11  1  0  0  0  0
 10 40  1  0  0  0  0
 10 41  1  0  0  0  0
 11 12  1  0  0  0  0
 11 42  1  0  0  0  0
 11 43  1  0  0  0  0
 12 13  1  0  0  0  0
 12 44  1  0  0  0  0
 12 45  1  0  0  0  0
 13 14  1  0  0  0  0
 13 46  1  0  0  0  0
 13 47  1  0  0  0  0
 14 15  1  0  0  0  0
 14 48  1  0  0  0  0
 14 49  1  0  0  0  0
 15 16  1  0  0  0  0
 15 17  1  0  0  0  0
 15 18  1  0  0  0  0
 16 50  1  0  0  0  0
 16 51  1  0  0  0  0
 16 52  1  0  0  0  0
 17 53  1  0  0  0  0
 17 54  1  0  0  0  0
 17 55  1  0  0  0  0
 18 56  1  0  0  0  0
 18 57  1  0  0  0  0
 18 58  1  0  0  0  0
M  CHG  4   1   1  15   1  19  -1  20  -1
M  END
>  <Mol_ID>
1233

>  <Formula>
C16H38Br2N2

>  <MolWeight>
418.29432

>  <Cat>
S4072

>  <Name>
Decamethonium Bromide

>  <Synonyms>
N/A

>  <Target>
AChR

>  <Form>
Bromide

>  <CAS>
541-22-0

>  <URL>
http://selleckchem.com/products/decamethonium-bromide.html

$$$$
