DEET.cdx
 OpenBabel08302520003D

 31 31  0  0  0  0  0  0  0  0999 V2000
    0.8809   -0.1677   -0.1624 C   0  0  0  0  0  0  0  0  0  0  0  0
    2.3751   -0.1237   -0.1728 C   0  0  0  0  0  0  0  0  0  0  0  0
    0.1479   -0.9957    0.6959 C   0  0  0  0  0  0  0  0  0  0  0  0
    0.1872    0.7188   -1.0000 C   0  0  0  0  0  0  0  0  0  0  0  0
    3.1572   -1.2766    0.0099 N   0  0  0  0  0  0  0  0  0  0  0  0
    2.8882    0.9802   -0.3638 O   0  0  0  0  0  0  0  0  0  0  0  0
   -1.2526   -1.0429    0.6291 C   0  0  0  0  0  0  0  0  0  0  0  0
   -1.2088    0.7160   -1.0357 C   0  0  0  0  0  0  0  0  0  0  0  0
    4.6131   -1.0979    0.0401 C   0  0  0  0  0  0  0  0  0  0  0  0
    2.6767   -2.6646   -0.0320 C   0  0  0  0  0  0  0  0  0  0  0  0
   -1.9253   -0.1806   -0.2424 C   0  0  0  0  0  0  0  0  0  0  0  0
   -2.0244   -2.0072    1.4799 C   0  0  0  0  0  0  0  0  0  0  0  0
    5.2577   -1.2649   -1.3303 C   0  0  0  0  0  0  0  0  0  0  0  0
    2.8742   -3.3742    1.3023 C   0  0  0  0  0  0  0  0  0  0  0  0
    0.6614   -1.6128    1.4228 H   0  0  0  0  0  0  0  0  0  0  0  0
    0.7355    1.4237   -1.6216 H   0  0  0  0  0  0  0  0  0  0  0  0
   -1.7372    1.4103   -1.6846 H   0  0  0  0  0  0  0  0  0  0  0  0
    4.8534   -0.1016    0.4260 H   0  0  0  0  0  0  0  0  0  0  0  0
    5.0454   -1.8142    0.7448 H   0  0  0  0  0  0  0  0  0  0  0  0
    1.6304   -2.7109   -0.3345 H   0  0  0  0  0  0  0  0  0  0  0  0
    3.2248   -3.1991   -0.8142 H   0  0  0  0  0  0  0  0  0  0  0  0
   -3.0117   -0.1914   -0.2971 H   0  0  0  0  0  0  0  0  0  0  0  0
   -2.6769   -1.4670    2.1714 H   0  0  0  0  0  0  0  0  0  0  0  0
   -2.6308   -2.6644    0.8462 H   0  0  0  0  0  0  0  0  0  0  0  0
   -1.3561   -2.6446    2.0690 H   0  0  0  0  0  0  0  0  0  0  0  0
    4.8870   -0.5152   -2.0358 H   0  0  0  0  0  0  0  0  0  0  0  0
    6.3439   -1.1548   -1.2503 H   0  0  0  0  0  0  0  0  0  0  0  0
    5.0543   -2.2530   -1.7544 H   0  0  0  0  0  0  0  0  0  0  0  0
    2.5657   -2.7478    2.1460 H   0  0  0  0  0  0  0  0  0  0  0  0
    2.2995   -4.3052    1.3328 H   0  0  0  0  0  0  0  0  0  0  0  0
    3.9269   -3.6348    1.4565 H   0  0  0  0  0  0  0  0  0  0  0  0
  1  2  1  0  0  0  0
  1  3  2  0  0  0  0
  1  4  1  0  0  0  0
  2  5  1  0  0  0  0
  2  6  2  0  0  0  0
  3  7  1  0  0  0  0
  3 15  1  0  0  0  0
  4  8  2  0  0  0  0
  4 16  1  0  0  0  0
  5  9  1  0  0  0  0
  5 10  1  0  0  0  0
  7 11  2  0  0  0  0
  7 12  1  0  0  0  0
  8 11  1  0  0  0  0
  8 17  1  0  0  0  0
  9 13  1  0  0  0  0
  9 18  1  0  0  0  0
  9 19  1  0  0  0  0
 10 14  1  0  0  0  0
 10 20  1  0  0  0  0
 10 21  1  0  0  0  0
 11 22  1  0  0  0  0
 12 23  1  0  0  0  0
 12 24  1  0  0  0  0
 12 25  1  0  0  0  0
 13 26  1  0  0  0  0
 13 27  1  0  0  0  0
 13 28  1  0  0  0  0
 14 29  1  0  0  0  0
 14 30  1  0  0  0  0
 14 31  1  0  0  0  0
M  END
>  <Mol_ID>
2674

>  <Formula>
C12H17NO

>  <MolWeight>
191.26948

>  <Cat>
S4521

>  <Name>
DEET

>  <Synonyms>
N,N-Diethyl-meta-toluamide, diethyltoluamide

>  <Target>
Anti-infection

>  <Form>
free base

>  <CAS>
134-62-3

>  <URL>
http://selleckchem.com/products/deet.html

$$$$
