Deferiprone.cdx
 OpenBabel08302521403D

 19 19  0  0  0  0  0  0  0  0999 V2000
    1.2662    0.6586   -0.1246 C   0  0  0  0  0  0  0  0  0  0  0  0
    1.2977   -0.6870    0.0009 C   0  0  0  0  0  0  0  0  0  0  0  0
    0.0103   -1.4406    0.0765 C   0  0  0  0  0  0  0  0  0  0  0  0
   -1.2463   -0.6750    0.0128 C   0  0  0  0  0  0  0  0  0  0  0  0
   -1.1484    0.6535   -0.0952 C   0  0  0  0  0  0  0  0  0  0  0  0
    0.0429    1.3700   -0.1670 N   0  0  0  0  0  0  0  0  0  0  0  0
    0.0209   -2.6645    0.1863 O   0  0  0  0  0  0  0  0  0  0  0  0
    2.4636   -1.4278    0.0641 O   0  0  0  0  0  0  0  0  0  0  0  0
    2.5639    1.4230   -0.2389 C   0  0  0  0  0  0  0  0  0  0  0  0
   -0.0343    2.8370   -0.2232 C   0  0  0  0  0  0  0  0  0  0  0  0
   -2.1810   -1.2113    0.0619 H   0  0  0  0  0  0  0  0  0  0  0  0
   -2.0463    1.2655   -0.1356 H   0  0  0  0  0  0  0  0  0  0  0  0
    2.1600   -2.3544    0.1702 H   0  0  0  0  0  0  0  0  0  0  0  0
    2.5930    1.9805   -1.1817 H   0  0  0  0  0  0  0  0  0  0  0  0
    2.6722    2.1245    0.5952 H   0  0  0  0  0  0  0  0  0  0  0  0
    3.4478    0.7770   -0.2307 H   0  0  0  0  0  0  0  0  0  0  0  0
   -0.6719    3.1476   -1.0589 H   0  0  0  0  0  0  0  0  0  0  0  0
   -0.4703    3.2222    0.7053 H   0  0  0  0  0  0  0  0  0  0  0  0
    0.9329    3.3262   -0.3600 H   0  0  0  0  0  0  0  0  0  0  0  0
  1  2  2  0  0  0  0
  1  9  1  0  0  0  0
  2  3  1  0  0  0  0
  2  8  1  0  0  0  0
  3  4  1  0  0  0  0
  3  7  2  0  0  0  0
  4  5  2  0  0  0  0
  4 11  1  0  0  0  0
  5  6  1  0  0  0  0
  5 12  1  0  0  0  0
  6  1  1  0  0  0  0
  6 10  1  0  0  0  0
  8 13  1  0  0  0  0
  9 14  1  0  0  0  0
  9 15  1  0  0  0  0
  9 16  1  0  0  0  0
 10 17  1  0  0  0  0
 10 18  1  0  0  0  0
 10 19  1  0  0  0  0
M  END
>  <Mol_ID>
8230

>  <Formula>
C7H9NO2

>  <MolWeight>
139.15186

>  <Cat>
S4067

>  <Name>
Deferiprone

>  <Synonyms>
CP20

>  <Target>
Others

>  <Form>
Free Base

>  <CAS>
30652-11-0

>  <URL>
http://selleckchem.com/products/deferiprone.html

$$$$
