Dehydroabietic acid
 OpenBabel08302521342D

 50 52  0  0  0  0  0  0  0  0999 V2000
    0.0000    1.1880    0.0000 O   0  0  0  0  0  0  0  0  0  0  0  0
    2.1138    0.0000    0.0000 O   0  0  0  0  0  0  0  0  0  0  0  0
    3.3372    3.1732    0.0000 C   0  0  2  0  0  0  0  0  0  0  0  0
    3.3372    4.5731    0.0000 C   0  0  2  0  0  0  0  0  0  0  0  0
    2.0858    2.4246    0.0000 C   0  0  2  0  0  0  0  0  0  0  0  0
    2.0858    5.3215    0.0000 C   0  0  0  0  0  0  0  0  0  0  0  0
    4.5496    2.4730    0.0000 C   0  0  0  0  0  0  0  0  0  0  0  0
    0.8173    3.1439    0.0000 C   0  0  0  0  0  0  0  0  0  0  0  0
    0.8173    4.6022    0.0000 C   0  0  0  0  0  0  0  0  0  0  0  0
    4.5496    5.2731    0.0000 C   0  0  0  0  0  0  0  0  0  0  0  0
    5.7620    3.1732    0.0000 C   0  0  0  0  0  0  0  0  0  0  0  0
    3.3372    5.9729    0.0000 C   0  0  0  0  0  0  0  0  0  0  0  0
    5.7620    4.5731    0.0000 C   0  0  0  0  0  0  0  0  0  0  0  0
    2.7996    1.2203    0.0000 C   0  0  0  0  0  0  0  0  0  0  0  0
    1.3998    1.2041    0.0000 C   0  0  0  0  0  0  0  0  0  0  0  0
    4.5272    6.7311    0.0000 C   0  0  0  0  0  0  0  0  0  0  0  0
    7.0359    5.2826    0.0000 C   0  0  0  0  0  0  0  0  0  0  0  0
    7.0473    6.7408    0.0000 C   0  0  0  0  0  0  0  0  0  0  0  0
    5.7844    7.4699    0.0000 C   0  0  0  0  0  0  0  0  0  0  0  0
    8.2623    7.4360    0.0000 C   0  0  0  0  0  0  0  0  0  0  0  0
    8.2677    8.8360    0.0000 C   0  0  0  0  0  0  0  0  0  0  0  0
    9.4720    6.7314    0.0000 C   0  0  0  0  0  0  0  0  0  0  0  0
   -0.4778    1.9940    0.0000 H   0  0  0  0  0  0  0  0  0  0  0  0
    4.2639    3.7081    0.0000 H   0  0  0  0  0  0  0  0  0  0  0  0
    2.0982    6.3914    0.0000 H   0  0  0  0  0  0  0  0  0  0  0  0
    1.1644    5.8654    0.0000 H   0  0  0  0  0  0  0  0  0  0  0  0
    4.5496    1.4030    0.0000 H   0  0  0  0  0  0  0  0  0  0  0  0
    5.4763    1.9381    0.0000 H   0  0  0  0  0  0  0  0  0  0  0  0
   -0.1073    2.6053    0.0000 H   0  0  0  0  0  0  0  0  0  0  0  0
   -0.1104    3.6771    0.0000 H   0  0  0  0  0  0  0  0  0  0  0  0
   -0.1073    5.1408    0.0000 H   0  0  0  0  0  0  0  0  0  0  0  0
   -0.1104    4.0690    0.0000 H   0  0  0  0  0  0  0  0  0  0  0  0
    6.6887    2.6383    0.0000 H   0  0  0  0  0  0  0  0  0  0  0  0
    6.6886    3.7082    0.0000 H   0  0  0  0  0  0  0  0  0  0  0  0
    4.2638    6.5079    0.0000 H   0  0  0  0  0  0  0  0  0  0  0  0
    2.4106    6.5079    0.0000 H   0  0  0  0  0  0  0  0  0  0  0  0
    3.3372    7.0429    0.0000 H   0  0  0  0  0  0  0  0  0  0  0  0
    2.2752    0.2876    0.0000 H   0  0  0  0  0  0  0  0  0  0  0  0
    3.8695    1.2325    0.0000 H   0  0  0  0  0  0  0  0  0  0  0  0
    3.3452    0.2998    0.0000 H   0  0  0  0  0  0  0  0  0  0  0  0
    3.6276    7.2368    0.0000 H   0  0  0  0  0  0  0  0  0  0  0  0
    7.9236    4.7562    0.0000 H   0  0  0  0  0  0  0  0  0  0  0  0
    5.7804    8.5019    0.0000 H   0  0  0  0  0  0  0  0  0  0  0  0
    9.1910    7.9674    0.0000 H   0  0  0  0  0  0  0  0  0  0  0  0
    9.1964    9.3674    0.0000 H   0  0  0  0  0  0  0  0  0  0  0  0
    7.3431    9.3746    0.0000 H   0  0  0  0  0  0  0  0  0  0  0  0
    8.2718    9.9060    0.0000 H   0  0  0  0  0  0  0  0  0  0  0  0
    9.4679    5.6614    0.0000 H   0  0  0  0  0  0  0  0  0  0  0  0
   10.4007    7.2629    0.0000 H   0  0  0  0  0  0  0  0  0  0  0  0
   10.3966    6.1929    0.0000 H   0  0  0  0  0  0  0  0  0  0  0  0
  1 15  1  0  0  0  0
  1 23  1  0  0  0  0
  2 15  2  0  0  0  0
  3  4  1  0  0  0  0
  3  5  1  0  0  0  0
  3  7  1  0  0  0  0
  3 24  1  6  0  0  0
  4  6  1  0  0  0  0
  4 10  1  0  0  0  0
  4 12  1  1  0  0  0
  5  8  1  0  0  0  0
  5 14  1  0  0  0  0
  5 15  1  6  0  0  0
  6  9  1  0  0  0  0
  6 25  1  0  0  0  0
  6 26  1  0  0  0  0
  7 11  1  0  0  0  0
  7 27  1  0  0  0  0
  7 28  1  0  0  0  0
  8  9  1  0  0  0  0
  8 29  1  0  0  0  0
  8 30  1  0  0  0  0
  9 31  1  0  0  0  0
  9 32  1  0  0  0  0
 10 13  2  0  0  0  0
 10 16  1  0  0  0  0
 11 13  1  0  0  0  0
 11 33  1  0  0  0  0
 11 34  1  0  0  0  0
 12 35  1  0  0  0  0
 12 36  1  0  0  0  0
 12 37  1  0  0  0  0
 13 17  1  0  0  0  0
 14 38  1  0  0  0  0
 14 39  1  0  0  0  0
 14 40  1  0  0  0  0
 16 19  2  0  0  0  0
 16 41  1  0  0  0  0
 17 18  2  0  0  0  0
 17 42  1  0  0  0  0
 18 19  1  0  0  0  0
 18 20  1  0  0  0  0
 19 43  1  0  0  0  0
 20 21  1  0  0  0  0
 20 22  1  0  0  0  0
 20 44  1  0  0  0  0
 21 45  1  0  0  0  0
 21 46  1  0  0  0  0
 21 47  1  0  0  0  0
 22 48  1  0  0  0  0
 22 49  1  0  0  0  0
 22 50  1  0  0  0  0
M  END
>  <Mol_ID>
5114

>  <Formula>
C20H28O2

>  <MolWeight>
300.43512

>  <Cat>
S3226

>  <Name>
Dehydroabietic acid

>  <Synonyms>
DAA, DHAA

>  <Target>
Anti-infection,Src,Syk,TAK1

>  <Form>
free base

>  <CAS>
1740-19-8

>  <URL>
http://www.selleckchem.com/products/dehydroabietic-acid.html

$$$$
