Dehydroacetic acid.cdx
 OpenBabel08302519503D

 20 20  0  0  0  0  0  0  0  0999 V2000
    0.4086    1.3390    0.1126 C   0  0  3  0  0  0  0  0  0  0  0  0
   -1.0295    0.9965   -0.0876 C   0  0  0  0  0  0  0  0  0  0  0  0
    1.3810    0.2202   -0.0492 C   0  0  0  0  0  0  0  0  0  0  0  0
    0.5930    1.9909    1.4559 C   0  0  0  0  0  0  0  0  0  0  0  0
   -1.4309   -0.4122   -0.0732 C   0  0  0  0  0  0  0  0  0  0  0  0
   -1.8911    1.8623   -0.2229 O   0  0  0  0  0  0  0  0  0  0  0  0
    0.8981   -1.0494   -0.0996 O   0  0  0  0  0  0  0  0  0  0  0  0
    2.5896    0.4386   -0.1253 O   0  0  0  0  0  0  0  0  0  0  0  0
    1.1541    3.3864    1.5031 C   0  0  0  0  0  0  0  0  0  0  0  0
    0.2880    1.4007    2.4952 O   0  0  0  0  0  0  0  0  0  0  0  0
   -0.4772   -1.3455   -0.0608 C   0  0  0  0  0  0  0  0  0  0  0  0
   -0.7947   -2.8070   -0.0250 C   0  0  0  0  0  0  0  0  0  0  0  0
    0.6482    2.0485   -0.6900 H   0  0  0  0  0  0  0  0  0  0  0  0
   -2.4903   -0.6359   -0.0626 H   0  0  0  0  0  0  0  0  0  0  0  0
    0.4168    4.0498    1.9618 H   0  0  0  0  0  0  0  0  0  0  0  0
    2.0766    3.3833    2.0893 H   0  0  0  0  0  0  0  0  0  0  0  0
    1.3796    3.7573    0.5006 H   0  0  0  0  0  0  0  0  0  0  0  0
   -1.3664   -3.0536    0.8756 H   0  0  0  0  0  0  0  0  0  0  0  0
   -1.3769   -3.0971   -0.9054 H   0  0  0  0  0  0  0  0  0  0  0  0
    0.1191   -3.4099   -0.0145 H   0  0  0  0  0  0  0  0  0  0  0  0
  1  2  1  0  0  0  0
  1  3  1  0  0  0  0
  1  4  1  0  0  0  0
  1 13  1  0  0  0  0
  2  5  1  0  0  0  0
  2  6  2  0  0  0  0
  3  7  1  0  0  0  0
  3  8  2  0  0  0  0
  4  9  1  0  0  0  0
  4 10  2  0  0  0  0
  5 11  2  0  0  0  0
  5 14  1  0  0  0  0
  7 11  1  0  0  0  0
  9 15  1  0  0  0  0
  9 16  1  0  0  0  0
  9 17  1  0  0  0  0
 11 12  1  0  0  0  0
 12 18  1  0  0  0  0
 12 19  1  0  0  0  0
 12 20  1  0  0  0  0
M  END
>  <Mol_ID>
1492

>  <Formula>
C8H8O4

>  <MolWeight>
168.14672

>  <Cat>
S4522

>  <Name>
Dehydroacetic acid

>  <Synonyms>
Biocide 470F, Methylacetopyronone

>  <Target>
Bacterial

>  <Form>
free base

>  <CAS>
520-45-6

>  <URL>
http://selleckchem.com/products/dehydroacetic-acid.html

$$$$
