DEPEN (penicillamine).cdx
 OpenBabel08302520413D

 20 19  0  0  0  0  0  0  0  0999 V2000
    3.1643    0.1955   -1.0210 S   0  0  0  0  0  0  0  0  0  0  0  0
    2.4531   -0.3222   -2.6629 C   0  0  0  0  0  0  0  0  0  0  0  0
    0.9020   -0.4137   -2.5172 C   0  0  2  0  0  0  0  0  0  0  0  0
    0.1596   -0.9524   -3.7663 C   0  0  0  0  0  0  0  0  0  0  0  0
   -1.1098   -0.4557   -3.8115 O   0  0  0  0  0  0  0  0  0  0  0  0
    0.5886   -1.7376   -4.5910 O   0  0  0  0  0  0  0  0  0  0  0  0
    2.9067    0.7089   -3.7054 C   0  0  0  0  0  0  0  0  0  0  0  0
    3.0980   -1.6841   -2.9710 C   0  0  0  0  0  0  0  0  0  0  0  0
    0.2240    0.8804   -2.1483 N   0  0  0  0  0  0  0  0  0  0  0  0
    2.6956    1.4497   -1.0056 H   0  0  0  0  0  0  0  0  0  0  0  0
    0.6579   -1.1269   -1.7179 H   0  0  0  0  0  0  0  0  0  0  0  0
   -1.1902    0.1649   -3.0436 H   0  0  0  0  0  0  0  0  0  0  0  0
    4.0001    0.7372   -3.7924 H   0  0  0  0  0  0  0  0  0  0  0  0
    2.5135    0.4623   -4.6975 H   0  0  0  0  0  0  0  0  0  0  0  0
    2.5742    1.7242   -3.4630 H   0  0  0  0  0  0  0  0  0  0  0  0
    4.1928   -1.6395   -2.9135 H   0  0  0  0  0  0  0  0  0  0  0  0
    2.7536   -2.4616   -2.2798 H   0  0  0  0  0  0  0  0  0  0  0  0
    2.8705   -2.0201   -3.9869 H   0  0  0  0  0  0  0  0  0  0  0  0
    0.6423    1.2123   -1.2756 H   0  0  0  0  0  0  0  0  0  0  0  0
    0.4745    1.5886   -2.8465 H   0  0  0  0  0  0  0  0  0  0  0  0
  1  2  1  0  0  0  0
  1 10  1  0  0  0  0
  2  7  1  0  0  0  0
  2  8  1  0  0  0  0
  3  9  1  0  0  0  0
  3 11  1  1  0  0  0
  3  4  1  0  0  0  0
  3  2  1  0  0  0  0
  4  5  1  0  0  0  0
  4  6  2  0  0  0  0
  5 12  1  0  0  0  0
  7 13  1  0  0  0  0
  7 14  1  0  0  0  0
  7 15  1  0  0  0  0
  8 16  1  0  0  0  0
  8 17  1  0  0  0  0
  8 18  1  0  0  0  0
  9 19  1  0  0  0  0
  9 20  1  0  0  0  0
M  END
>  <Mol_ID>
3994

>  <Formula>
C5H11NO2S

>  <MolWeight>
149.21134

>  <Cat>
S1853

>  <Name>
Penicillamine

>  <Synonyms>
Dimethyl Cysteine

>  <Target>
Others

>  <Form>
free base

>  <CAS>
52-67-5

>  <URL>
http://selleckchem.com/products/Penicillamine(Cuprimine).html

$$$$
