Desciclovir
 OpenBabel08302521243D

 26 27  0  0  0  0  0  0  0  0999 V2000
    0.1280   -0.6608   -0.0651 C   0  0  0  0  0  0  0  0  0  0  0  0
    0.1912    0.7215   -0.0990 C   0  0  0  0  0  0  0  0  0  0  0  0
    1.4291   -1.0695   -0.1239 N   0  0  0  0  0  0  0  0  0  0  0  0
   -0.9726   -1.4235    0.0276 N   0  0  0  0  0  0  0  0  0  0  0  0
    1.4933    1.1540   -0.1915 N   0  0  0  0  0  0  0  0  0  0  0  0
   -1.0273    1.3822   -0.0317 C   0  0  0  0  0  0  0  0  0  0  0  0
    2.2140    0.0502   -0.1983 C   0  0  0  0  0  0  0  0  0  0  0  0
    1.8946   -2.4361   -0.0735 C   0  0  0  0  0  0  0  0  0  0  0  0
   -2.0903   -0.6855    0.1110 C   0  0  0  0  0  0  0  0  0  0  0  0
   -2.1729    0.6570    0.0675 N   0  0  0  0  0  0  0  0  0  0  0  0
    2.7988   -2.6114    1.0212 O   0  0  0  0  0  0  0  0  0  0  0  0
   -3.2854   -1.3704    0.2128 N   0  0  0  0  0  0  0  0  0  0  0  0
    2.1345   -2.5926    2.2874 C   0  0  0  0  0  0  0  0  0  0  0  0
    3.1350   -2.9284    3.3868 C   0  0  0  0  0  0  0  0  0  0  0  0
    2.5306   -2.7912    4.6659 O   0  0  0  0  0  0  0  0  0  0  0  0
   -1.1186    2.4605   -0.0457 H   0  0  0  0  0  0  0  0  0  0  0  0
    3.2952    0.0003   -0.2387 H   0  0  0  0  0  0  0  0  0  0  0  0
    1.0522   -3.1322   -0.0071 H   0  0  0  0  0  0  0  0  0  0  0  0
    2.4370   -2.6280   -1.0046 H   0  0  0  0  0  0  0  0  0  0  0  0
   -3.1963   -2.2910   -0.1900 H   0  0  0  0  0  0  0  0  0  0  0  0
   -4.0405   -0.7858   -0.1193 H   0  0  0  0  0  0  0  0  0  0  0  0
    1.7108   -1.5998    2.4767 H   0  0  0  0  0  0  0  0  0  0  0  0
    1.3109   -3.3163    2.3008 H   0  0  0  0  0  0  0  0  0  0  0  0
    3.4841   -3.9603    3.2780 H   0  0  0  0  0  0  0  0  0  0  0  0
    4.0177   -2.2817    3.3248 H   0  0  0  0  0  0  0  0  0  0  0  0
    2.9375   -2.0202    5.0989 H   0  0  0  0  0  0  0  0  0  0  0  0
  1  2  2  0  0  0  0
  1  3  1  0  0  0  0
  1  4  1  0  0  0  0
  2  5  1  0  0  0  0
  2  6  1  0  0  0  0
  3  7  1  0  0  0  0
  3  8  1  0  0  0  0
  4  9  2  0  0  0  0
  5  7  2  0  0  0  0
  6 10  2  0  0  0  0
  6 16  1  0  0  0  0
  7 17  1  0  0  0  0
  8 11  1  0  0  0  0
  8 18  1  0  0  0  0
  8 19  1  0  0  0  0
  9 12  1  0  0  0  0
  9 10  1  0  0  0  0
 11 13  1  0  0  0  0
 12 20  1  0  0  0  0
 12 21  1  0  0  0  0
 13 14  1  0  0  0  0
 13 22  1  0  0  0  0
 13 23  1  0  0  0  0
 14 15  1  0  0  0  0
 14 24  1  0  0  0  0
 14 25  1  0  0  0  0
 15 26  1  0  0  0  0
M  END
>  <Mol_ID>
4984

>  <Formula>
C8H11N5O2

>  <MolWeight>
209.20524

>  <Cat>
S0443

>  <Name>
Desciclovir

>  <Synonyms>
DCV, 6-Deoxyacyclovir, BW A515U

>  <Target>
Anti-infection

>  <Form>
Free Base

>  <CAS>
84408-37-7

>  <URL>
http://www.selleckchem.com/products/desciclovir.html

$$$$
