DESMETHYLBELLIDIFOLIN
 OpenBabel08302521463D

 27 29  0  0  0  0  0  0  0  0999 V2000
    0.9610    0.0066   -0.0391 O   0  0  0  0  0  0  0  0  0  0  0  0
    0.9381   -2.6808   -0.0354 O   0  0  0  0  0  0  0  0  0  0  0  0
    5.2195   -4.7959   -0.0397 O   0  0  0  0  0  0  0  0  0  0  0  0
    6.4555    2.2305   -0.0370 O   0  0  0  0  0  0  0  0  0  0  0  0
    0.9554    2.5608   -0.0380 O   0  0  0  0  0  0  0  0  0  0  0  0
    4.3278   -1.2638   -0.0382 C   0  0  0  0  0  0  0  0  0  0  0  0
    2.9320   -1.3370   -0.0374 C   0  0  0  0  0  0  0  0  0  0  0  0
    5.0396   -0.0866   -0.0383 O   0  0  0  0  0  0  0  0  0  0  0  0
    5.0842   -2.4393   -0.0389 C   0  0  0  0  0  0  0  0  0  0  0  0
    2.1843   -0.0671   -0.0379 C   0  0  0  0  0  0  0  0  0  0  0  0
    2.3006   -2.5886   -0.0366 C   0  0  0  0  0  0  0  0  0  0  0  0
    4.3492    1.1027   -0.0376 C   0  0  0  0  0  0  0  0  0  0  0  0
    4.4429   -3.6752   -0.0385 C   0  0  0  0  0  0  0  0  0  0  0  0
    2.9591    1.1795   -0.0380 C   0  0  0  0  0  0  0  0  0  0  0  0
    3.0550   -3.7625   -0.0370 C   0  0  0  0  0  0  0  0  0  0  0  0
    5.0888    2.2919   -0.0372 C   0  0  0  0  0  0  0  0  0  0  0  0
    2.3178    2.4247   -0.0374 C   0  0  0  0  0  0  0  0  0  0  0  0
    4.4525    3.5370   -0.0371 C   0  0  0  0  0  0  0  0  0  0  0  0
    3.0593    3.6004   -0.0373 C   0  0  0  0  0  0  0  0  0  0  0  0
    0.6523   -3.6063   -0.0429 H   0  0  0  0  0  0  0  0  0  0  0  0
    4.6495   -5.5834   -0.0419 H   0  0  0  0  0  0  0  0  0  0  0  0
    6.8158    3.1329   -0.0363 H   0  0  0  0  0  0  0  0  0  0  0  0
    0.5675    1.6534   -0.0391 H   0  0  0  0  0  0  0  0  0  0  0  0
    6.1705   -2.3935   -0.0399 H   0  0  0  0  0  0  0  0  0  0  0  0
    2.5640   -4.7297   -0.0356 H   0  0  0  0  0  0  0  0  0  0  0  0
    5.0185    4.4632   -0.0372 H   0  0  0  0  0  0  0  0  0  0  0  0
    2.5490    4.5602   -0.0376 H   0  0  0  0  0  0  0  0  0  0  0  0
  1 10  2  0  0  0  0
  2 11  1  0  0  0  0
  2 20  1  0  0  0  0
  3 13  1  0  0  0  0
  3 21  1  0  0  0  0
  4 16  1  0  0  0  0
  4 22  1  0  0  0  0
  5 17  1  0  0  0  0
  5 23  1  0  0  0  0
  6  7  2  0  0  0  0
  6  8  1  0  0  0  0
  6  9  1  0  0  0  0
  7 10  1  0  0  0  0
  7 11  1  0  0  0  0
  8 12  1  0  0  0  0
  9 13  2  0  0  0  0
  9 24  1  0  0  0  0
 10 14  1  0  0  0  0
 11 15  2  0  0  0  0
 12 14  2  0  0  0  0
 12 16  1  0  0  0  0
 13 15  1  0  0  0  0
 14 17  1  0  0  0  0
 15 25  1  0  0  0  0
 16 18  2  0  0  0  0
 17 19  2  0  0  0  0
 18 19  1  0  0  0  0
 18 26  1  0  0  0  0
 19 27  1  0  0  0  0
M  END
>  <Mol_ID>
9674

>  <Formula>
C13H8O6

>  <MolWeight>
260.19902

>  <Cat>
E0663

>  <Name>
DESMETHYLBELLIDIFOLIN

>  <Synonyms>
1,3,5,8-Tetrahydroxyxanthone

>  <Target>
anti-inflammatory

>  <Form>
Free Base

>  <CAS>
2980-32-7

>  <URL>
https://www.selleckchem.com/products/tetrahydroxyxanthone.html

$$$$
