Desoximetasone
 OpenBabel08302520422D

 56 59  0  0  0  0  0  0  0  0999 V2000
    6.0787    2.1178    0.0000 C   0  0  2  0  0  0  0  0  0  0  0  0
    4.8783    2.8222    0.0000 C   0  0  1  0  0  0  0  0  0  0  0  0
    7.2883    2.8222    0.0000 C   0  0  1  0  0  0  0  0  0  0  0  0
    6.0655    0.7178    0.0000 C   0  0  0  0  0  0  0  0  0  0  0  0
    3.6641    2.1178    0.0000 C   0  0  2  0  0  0  0  0  0  0  0  0
    4.8871    4.2178    0.0000 C   0  0  2  0  0  0  0  0  0  0  0  0
    4.8649    1.4178    0.0000 F   0  0  0  0  0  0  0  0  0  0  0  0
    7.2883    4.2178    0.0000 C   0  0  2  0  0  0  0  0  0  0  0  0
    8.6176    2.3970    0.0000 C   0  0  0  0  0  0  0  0  0  0  0  0
    4.8649    0.0132    0.0000 C   0  0  0  0  0  0  0  0  0  0  0  0
    3.6641    0.7178    0.0000 C   0  0  0  0  0  0  0  0  0  0  0  0
    2.4591    2.8222    0.0000 C   0  0  0  0  0  0  0  0  0  0  0  0
    3.6775    3.5222    0.0000 C   0  0  0  0  0  0  0  0  0  0  0  0
    6.0877    4.9224    0.0000 C   0  0  0  0  0  0  0  0  0  0  0  0
    3.6775    4.9445    0.0000 O   0  0  0  0  0  0  0  0  0  0  0  0
    8.6176    4.6432    0.0000 C   0  0  2  0  0  0  0  0  0  0  0  0
    7.3017    5.6224    0.0000 C   0  0  0  0  0  0  0  0  0  0  0  0
    9.4328    3.5356    0.0000 C   0  0  2  0  0  0  0  0  0  0  0  0
    2.4591    0.0132    0.0000 C   0  0  0  0  0  0  0  0  0  0  0  0
    1.2451    2.1178    0.0000 C   0  0  0  0  0  0  0  0  0  0  0  0
    9.0695    5.9723    0.0000 C   0  0  0  0  0  0  0  0  0  0  0  0
   10.8374    3.5489    0.0000 C   0  0  0  0  0  0  0  0  0  0  0  0
    1.2451    0.7178    0.0000 C   0  0  0  0  0  0  0  0  0  0  0  0
   10.4253    6.2382    0.0000 C   0  0  0  0  0  0  0  0  0  0  0  0
    8.1568    7.0268    0.0000 O   0  0  0  0  0  0  0  0  0  0  0  0
    0.0000    0.0000    0.0000 O   0  0  0  0  0  0  0  0  0  0  0  0
   10.8861    7.5542    0.0000 O   0  0  0  0  0  0  0  0  0  0  0  0
    5.1477    1.5905    0.0000 H   0  0  0  0  0  0  0  0  0  0  0  0
    7.4046    1.7585    0.0000 H   0  0  0  0  0  0  0  0  0  0  0  0
    6.9915    0.1817    0.0000 H   0  0  0  0  0  0  0  0  0  0  0  0
    6.0687   -0.3522    0.0000 H   0  0  0  0  0  0  0  0  0  0  0  0
    3.9542    3.6938    0.0000 H   0  0  0  0  0  0  0  0  0  0  0  0
    8.9541    1.3813    0.0000 H   0  0  0  0  0  0  0  0  0  0  0  0
    9.6755    2.2363    0.0000 H   0  0  0  0  0  0  0  0  0  0  0  0
    4.8649   -1.0568    0.0000 H   0  0  0  0  0  0  0  0  0  0  0  0
    3.9364   -0.5186    0.0000 H   0  0  0  0  0  0  0  0  0  0  0  0
    2.4608    3.8542    0.0000 H   0  0  0  0  0  0  0  0  0  0  0  0
    4.6092    4.0483    0.0000 H   0  0  0  0  0  0  0  0  0  0  0  0
    2.7560    4.0660    0.0000 H   0  0  0  0  0  0  0  0  0  0  0  0
    3.6877    4.5922    0.0000 H   0  0  0  0  0  0  0  0  0  0  0  0
    6.0877    5.9924    0.0000 H   0  0  0  0  0  0  0  0  0  0  0  0
    7.0162    5.4541    0.0000 H   0  0  0  0  0  0  0  0  0  0  0  0
    3.6944    5.9144    0.0000 H   0  0  0  0  0  0  0  0  0  0  0  0
    7.8678    5.4066    0.0000 H   0  0  0  0  0  0  0  0  0  0  0  0
    8.2334    6.1485    0.0000 H   0  0  0  0  0  0  0  0  0  0  0  0
    6.3802    6.1662    0.0000 H   0  0  0  0  0  0  0  0  0  0  0  0
    7.3119    6.6924    0.0000 H   0  0  0  0  0  0  0  0  0  0  0  0
    9.9264    2.5862    0.0000 H   0  0  0  0  0  0  0  0  0  0  0  0
    2.4608   -1.0188    0.0000 H   0  0  0  0  0  0  0  0  0  0  0  0
    0.3508    2.6328    0.0000 H   0  0  0  0  0  0  0  0  0  0  0  0
   11.3811    2.6274    0.0000 H   0  0  0  0  0  0  0  0  0  0  0  0
   11.3636    4.4806    0.0000 H   0  0  0  0  0  0  0  0  0  0  0  0
   11.9074    3.5590    0.0000 H   0  0  0  0  0  0  0  0  0  0  0  0
   11.1259    5.4294    0.0000 H   0  0  0  0  0  0  0  0  0  0  0  0
   11.4763    6.4387    0.0000 H   0  0  0  0  0  0  0  0  0  0  0  0
   11.8392    7.7343    0.0000 H   0  0  0  0  0  0  0  0  0  0  0  0
  1  2  1  0  0  0  0
  1  3  1  0  0  0  0
  1  4  1  0  0  0  0
  1 28  1  1  0  0  0
  2  5  1  0  0  0  0
  2  6  1  0  0  0  0
  2  7  1  6  0  0  0
  3  8  1  0  0  0  0
  3  9  1  0  0  0  0
  3 29  1  6  0  0  0
  4 10  1  0  0  0  0
  4 30  1  0  0  0  0
  4 31  1  0  0  0  0
  5 11  1  0  0  0  0
  5 12  1  0  0  0  0
  5 13  1  1  0  0  0
  6 14  1  0  0  0  0
  6 15  1  0  0  0  0
  6 32  1  6  0  0  0
  8 16  1  0  0  0  0
  8 17  1  1  0  0  0
  8 14  1  0  0  0  0
  9 18  1  0  0  0  0
  9 33  1  0  0  0  0
  9 34  1  0  0  0  0
 10 11  1  0  0  0  0
 10 35  1  0  0  0  0
 10 36  1  0  0  0  0
 11 19  2  0  0  0  0
 12 20  2  0  0  0  0
 12 37  1  0  0  0  0
 13 38  1  0  0  0  0
 13 39  1  0  0  0  0
 13 40  1  0  0  0  0
 14 41  1  0  0  0  0
 14 42  1  0  0  0  0
 15 43  1  0  0  0  0
 16 21  1  0  0  0  0
 16 18  1  0  0  0  0
 16 44  1  6  0  0  0
 17 45  1  0  0  0  0
 17 46  1  0  0  0  0
 17 47  1  0  0  0  0
 18 22  1  0  0  0  0
 18 48  1  1  0  0  0
 19 23  1  0  0  0  0
 19 49  1  0  0  0  0
 20 23  1  0  0  0  0
 20 50  1  0  0  0  0
 21 24  1  0  0  0  0
 21 25  2  0  0  0  0
 22 51  1  0  0  0  0
 22 52  1  0  0  0  0
 22 53  1  0  0  0  0
 23 26  2  0  0  0  0
 24 27  1  0  0  0  0
 24 54  1  0  0  0  0
 24 55  1  0  0  0  0
 27 56  1  0  0  0  0
M  END
>  <Mol_ID>
3363

>  <Formula>
C22H29FO4

>  <MolWeight>
376.4616632

>  <Cat>
S5685

>  <Name>
Desoximetasone

>  <Synonyms>
Desoxymethasone, Desoximetasonum

>  <Target>
Glucocorticoid Receptor

>  <Form>
Free Base

>  <CAS>
382-67-2

>  <URL>
http://www.selleckchem.com/products/desoximetasone.html

$$$$
