DESOWEN (desonide).cdx
 OpenBabel08302520433D

 62 66  0  0  0  0  0  0  0  0999 V2000
    4.7294    1.3522   -0.0946 C   0  0  0  0  0  0  0  0  0  0  0  0
    4.3324    1.4602   -1.5273 C   0  0  0  0  0  0  0  0  0  0  0  0
    3.5551    2.6389   -1.9083 C   0  0  0  0  0  0  0  0  0  0  0  0
    3.0813    3.5054   -0.9935 C   0  0  0  0  0  0  0  0  0  0  0  0
    3.2980    3.3699    0.5396 C   0  0  2  0  0  0  0  0  0  0  0  0
    4.2826    2.2309    0.8163 C   0  0  0  0  0  0  0  0  0  0  0  0
    2.1289    4.5610   -1.4736 C   0  0  0  0  0  0  0  0  0  0  0  0
    0.9047    4.7406   -0.5908 C   0  0  0  0  0  0  0  0  0  0  0  0
    0.7400    3.8220    0.6479 C   0  0  2  0  0  0  0  0  0  0  0  0
    1.9200    2.9644    1.1023 C   0  0  3  0  0  0  0  0  0  0  0  0
   -0.4073    2.8379    0.3987 C   0  0  3  0  0  0  0  0  0  0  0  0
   -1.2031    2.0279    1.5626 C   0  0  3  0  0  0  0  0  0  0  0  0
    0.1676    1.6931    2.4504 C   0  0  0  0  0  0  0  0  0  0  0  0
    1.4916    2.5945    2.5186 C   0  0  3  0  0  0  0  0  0  0  0  0
    0.0526    1.9029   -0.7199 C   0  0  0  0  0  0  0  0  0  0  0  0
   -1.0709    0.9930   -0.8036 C   0  0  3  0  0  0  0  0  0  0  0  0
   -2.1236    1.4978    0.1132 C   0  0  3  0  0  0  0  0  0  0  0  0
    4.6137    0.5844   -2.3327 O   0  0  0  0  0  0  0  0  0  0  0  0
   -1.6391    0.8812   -2.0650 O   0  0  0  0  0  0  0  0  0  0  0  0
   -2.8476    0.2065   -1.7046 C   0  0  0  0  0  0  0  0  0  0  0  0
   -3.0365    0.3911   -0.2223 O   0  0  0  0  0  0  0  0  0  0  0  0
   -2.6042   -1.2649   -2.0427 C   0  0  0  0  0  0  0  0  0  0  0  0
   -3.9056    0.8398   -2.6069 C   0  0  0  0  0  0  0  0  0  0  0  0
    3.8452    4.6708    1.1307 C   0  0  0  0  0  0  0  0  0  0  0  0
    2.4981    1.8603    3.2113 O   0  0  0  0  0  0  0  0  0  0  0  0
   -1.9607    0.8255    2.2456 C   0  0  0  0  0  0  0  0  0  0  0  0
   -3.1795    2.6492   -0.1562 C   0  0  0  0  0  0  0  0  0  0  0  0
   -4.4825    2.6070    0.6627 C   0  0  0  0  0  0  0  0  0  0  0  0
   -3.0097    3.5813   -0.9501 O   0  0  0  0  0  0  0  0  0  0  0  0
   -5.3240    3.7267    0.4119 O   0  0  0  0  0  0  0  0  0  0  0  0
    5.3805    0.5337    0.1533 H   0  0  0  0  0  0  0  0  0  0  0  0
    3.3338    2.7166   -2.9682 H   0  0  0  0  0  0  0  0  0  0  0  0
    4.6332    2.1174    1.8400 H   0  0  0  0  0  0  0  0  0  0  0  0
    2.6484    5.5186   -1.5834 H   0  0  0  0  0  0  0  0  0  0  0  0
    1.7659    4.3118   -2.4834 H   0  0  0  0  0  0  0  0  0  0  0  0
    0.8737    5.7844   -0.2538 H   0  0  0  0  0  0  0  0  0  0  0  0
    0.0194    4.6704   -1.2418 H   0  0  0  0  0  0  0  0  0  0  0  0
    0.4279    4.5033    1.4552 H   0  0  0  0  0  0  0  0  0  0  0  0
    1.8980    1.9581    0.6928 H   0  0  0  0  0  0  0  0  0  0  0  0
   -1.1309    3.5592    0.0354 H   0  0  0  0  0  0  0  0  0  0  0  0
   -0.1404    1.7470    3.5106 H   0  0  0  0  0  0  0  0  0  0  0  0
    0.4752    0.6546    2.2790 H   0  0  0  0  0  0  0  0  0  0  0  0
    1.3083    3.4889    3.1264 H   0  0  0  0  0  0  0  0  0  0  0  0
    0.8804    1.2297   -0.4805 H   0  0  0  0  0  0  0  0  0  0  0  0
    0.2984    2.3826   -1.6631 H   0  0  0  0  0  0  0  0  0  0  0  0
   -0.7380   -0.0094   -0.4796 H   0  0  0  0  0  0  0  0  0  0  0  0
   -1.5527   -1.4396   -2.3082 H   0  0  0  0  0  0  0  0  0  0  0  0
   -3.1825   -1.5784   -2.9180 H   0  0  0  0  0  0  0  0  0  0  0  0
   -2.8467   -1.9190   -1.2018 H   0  0  0  0  0  0  0  0  0  0  0  0
   -3.5901    0.7625   -3.6595 H   0  0  0  0  0  0  0  0  0  0  0  0
   -4.8853    0.3838   -2.4895 H   0  0  0  0  0  0  0  0  0  0  0  0
   -4.0120    1.9155   -2.4392 H   0  0  0  0  0  0  0  0  0  0  0  0
    3.2027    5.5292    0.9082 H   0  0  0  0  0  0  0  0  0  0  0  0
    3.9286    4.6000    2.2205 H   0  0  0  0  0  0  0  0  0  0  0  0
    4.8407    4.9000    0.7326 H   0  0  0  0  0  0  0  0  0  0  0  0
    2.5785    0.9832    2.7976 H   0  0  0  0  0  0  0  0  0  0  0  0
   -1.8779    0.8476    3.3423 H   0  0  0  0  0  0  0  0  0  0  0  0
   -3.0482    0.8263    2.1303 H   0  0  0  0  0  0  0  0  0  0  0  0
   -1.5655   -0.1518    1.9293 H   0  0  0  0  0  0  0  0  0  0  0  0
   -4.2539    2.6087    1.7296 H   0  0  0  0  0  0  0  0  0  0  0  0
   -5.0507    1.7092    0.4052 H   0  0  0  0  0  0  0  0  0  0  0  0
   -4.7726    4.3882   -0.0514 H   0  0  0  0  0  0  0  0  0  0  0  0
  1  2  1  0  0  0  0
  1 31  1  0  0  0  0
  2  3  1  0  0  0  0
  2 18  2  0  0  0  0
  3  4  2  0  0  0  0
  3 32  1  0  0  0  0
  4  5  1  0  0  0  0
  4  7  1  0  0  0  0
  5  6  1  0  0  0  0
  5 24  1  1  0  0  0
  6  1  2  0  0  0  0
  6 33  1  0  0  0  0
  7  8  1  0  0  0  0
  7 34  1  0  0  0  0
  7 35  1  0  0  0  0
  8 36  1  0  0  0  0
  8 37  1  0  0  0  0
  9  8  1  0  0  0  0
  9 10  1  0  0  0  0
  9 11  1  0  0  0  0
  9 38  1  1  0  0  0
 10  5  1  0  0  0  0
 10 14  1  0  0  0  0
 10 39  1  0  0  0  0
 11 12  1  0  0  0  0
 11 15  1  0  0  0  0
 11 40  1  0  0  0  0
 12 13  1  0  0  0  0
 12 26  1  0  0  0  0
 13 14  1  0  0  0  0
 13 41  1  0  0  0  0
 13 42  1  0  0  0  0
 14 25  1  0  0  0  0
 14 43  1  0  0  0  0
 15 44  1  0  0  0  0
 15 45  1  0  0  0  0
 16 15  1  0  0  0  0
 16 17  1  0  0  0  0
 16 19  1  0  0  0  0
 16 46  1  0  0  0  0
 17 12  1  0  0  0  0
 17 27  1  0  0  0  0
 19 20  1  0  0  0  0
 20 21  1  0  0  0  0
 20 22  1  0  0  0  0
 20 23  1  0  0  0  0
 21 17  1  0  0  0  0
 22 47  1  0  0  0  0
 22 48  1  0  0  0  0
 22 49  1  0  0  0  0
 23 50  1  0  0  0  0
 23 51  1  0  0  0  0
 23 52  1  0  0  0  0
 24 53  1  0  0  0  0
 24 54  1  0  0  0  0
 24 55  1  0  0  0  0
 25 56  1  0  0  0  0
 26 57  1  0  0  0  0
 26 58  1  0  0  0  0
 26 59  1  0  0  0  0
 27 28  1  0  0  0  0
 27 29  2  0  0  0  0
 28 30  1  0  0  0  0
 28 60  1  0  0  0  0
 28 61  1  0  0  0  0
 30 62  1  0  0  0  0
M  END
>  <Mol_ID>
399

>  <Formula>
C24H32O6

>  <MolWeight>
416.50728

>  <Cat>
S1701

>  <Name>
Desonide

>  <Synonyms>
N/A

>  <Target>
Glucocorticoid Receptor

>  <Form>
free base

>  <CAS>
638-94-8

>  <URL>
http://selleckchem.com/products/Desonide.html

$$$$
