Dibenzoylmethane
 OpenBabel08302521363D

 29 30  0  0  0  0  0  0  0  0999 V2000
    0.9734    0.0227   -0.2396 C   0  0  0  0  0  0  0  0  0  0  0  0
    0.1902   -1.2542   -0.0926 C   0  0  0  0  0  0  0  0  0  0  0  0
    0.5203    0.9609   -0.9015 O   0  0  0  0  0  0  0  0  0  0  0  0
   -0.6494   -1.3393    1.1534 C   0  0  0  0  0  0  0  0  0  0  0  0
   -0.2286   -1.9461    2.1410 O   0  0  0  0  0  0  0  0  0  0  0  0
    2.3268    0.1605    0.3683 C   0  0  0  0  0  0  0  0  0  0  0  0
    3.2513    0.9987   -0.2737 C   0  0  0  0  0  0  0  0  0  0  0  0
    2.6912   -0.4630    1.5662 C   0  0  0  0  0  0  0  0  0  0  0  0
    4.5136    1.2225    0.2807 C   0  0  0  0  0  0  0  0  0  0  0  0
    3.9501   -0.2253    2.1261 C   0  0  0  0  0  0  0  0  0  0  0  0
    4.8585    0.6178    1.4863 C   0  0  0  0  0  0  0  0  0  0  0  0
   -2.0001   -0.7015    1.2171 C   0  0  0  0  0  0  0  0  0  0  0  0
   -2.5355    0.0676    0.1781 C   0  0  0  0  0  0  0  0  0  0  0  0
   -2.7551   -0.8859    2.3868 C   0  0  0  0  0  0  0  0  0  0  0  0
   -3.7983    0.6548    0.3179 C   0  0  0  0  0  0  0  0  0  0  0  0
   -4.0160   -0.3026    2.5219 C   0  0  0  0  0  0  0  0  0  0  0  0
   -4.5347    0.4726    1.4887 C   0  0  0  0  0  0  0  0  0  0  0  0
   -0.4418   -1.3833   -0.9790 H   0  0  0  0  0  0  0  0  0  0  0  0
    0.8718   -2.1111   -0.1243 H   0  0  0  0  0  0  0  0  0  0  0  0
    2.9869    1.4898   -1.2089 H   0  0  0  0  0  0  0  0  0  0  0  0
    2.0071   -1.1093    2.1070 H   0  0  0  0  0  0  0  0  0  0  0  0
    5.2192    1.8796   -0.2214 H   0  0  0  0  0  0  0  0  0  0  0  0
    4.2170   -0.6873    3.0743 H   0  0  0  0  0  0  0  0  0  0  0  0
    5.8314    0.8101    1.9336 H   0  0  0  0  0  0  0  0  0  0  0  0
   -1.9947    0.2437   -0.7466 H   0  0  0  0  0  0  0  0  0  0  0  0
   -2.3620   -1.4863    3.2058 H   0  0  0  0  0  0  0  0  0  0  0  0
   -4.2048    1.2632   -0.4860 H   0  0  0  0  0  0  0  0  0  0  0  0
   -4.5871   -0.4490    3.4350 H   0  0  0  0  0  0  0  0  0  0  0  0
   -5.5117    0.9391    1.5966 H   0  0  0  0  0  0  0  0  0  0  0  0
  1  2  1  0  0  0  0
  1  3  2  0  0  0  0
  1  6  1  0  0  0  0
  2  4  1  0  0  0  0
  2 18  1  0  0  0  0
  2 19  1  0  0  0  0
  4  5  2  0  0  0  0
  4 12  1  0  0  0  0
  6  7  2  0  0  0  0
  6  8  1  0  0  0  0
  7  9  1  0  0  0  0
  7 20  1  0  0  0  0
  8 10  2  0  0  0  0
  8 21  1  0  0  0  0
  9 11  2  0  0  0  0
  9 22  1  0  0  0  0
 10 11  1  0  0  0  0
 10 23  1  0  0  0  0
 11 24  1  0  0  0  0
 12 13  2  0  0  0  0
 12 14  1  0  0  0  0
 13 15  1  0  0  0  0
 13 25  1  0  0  0  0
 14 16  2  0  0  0  0
 14 26  1  0  0  0  0
 15 17  2  0  0  0  0
 15 27  1  0  0  0  0
 16 17  1  0  0  0  0
 16 28  1  0  0  0  0
 17 29  1  0  0  0  0
M  END
>  <Mol_ID>
7167

>  <Formula>
C15H12O2

>  <MolWeight>
224.25458

>  <Cat>
E4162

>  <Name>
Dibenzoylmethane

>  <Synonyms>
1,3-Diphenylpropane-1,3-dione

>  <Target>
Nrf2

>  <Form>
Free base

>  <CAS>
120-46-7

>  <URL>
https://www.selleckchem.com/products/dibenzoylmethane.html

$$$$
