Dibucaine HCL.cdx
 OpenBabel08302522033D

 54 55  0  0  0  0  0  0  0  0999 V2000
    0.0518   -0.9521   -0.1421 C   0  0  0  0  0  0  0  0  0  0  0  0
   -1.1873   -1.6473   -0.0669 C   0  0  0  0  0  0  0  0  0  0  0  0
   -0.0237    0.4571   -0.2642 C   0  0  0  0  0  0  0  0  0  0  0  0
    1.3413   -1.5529   -0.0817 C   0  0  0  0  0  0  0  0  0  0  0  0
   -2.3844   -0.9324   -0.0565 C   0  0  0  0  0  0  0  0  0  0  0  0
   -1.2714   -3.1291    0.1158 C   0  0  0  0  0  0  0  0  0  0  0  0
   -1.1888    1.1353   -0.3002 N   0  0  0  0  0  0  0  0  0  0  0  0
    1.1605    1.1881   -0.3210 C   0  0  0  0  0  0  0  0  0  0  0  0
    2.5091   -0.7863   -0.1063 C   0  0  0  0  0  0  0  0  0  0  0  0
   -2.3326    0.4382   -0.1736 C   0  0  0  0  0  0  0  0  0  0  0  0
   -2.3588   -3.7687   -0.4525 N   0  0  0  0  0  0  0  0  0  0  0  0
   -0.4220   -3.7333    0.7613 O   0  0  0  0  0  0  0  0  0  0  0  0
    2.4198    0.5866   -0.2325 C   0  0  0  0  0  0  0  0  0  0  0  0
   -3.5390    1.0914   -0.0142 O   0  0  0  0  0  0  0  0  0  0  0  0
   -2.5188   -5.2118   -0.3523 C   0  0  0  0  0  0  0  0  0  0  0  0
   -3.6023    2.3763   -0.6302 C   0  0  0  0  0  0  0  0  0  0  0  0
   -3.9980   -5.6490   -0.3958 C   0  0  0  0  0  0  0  0  0  0  0  0
   -4.9568    3.0144   -0.2918 C   0  0  0  0  0  0  0  0  0  0  0  0
   -4.7239   -5.2833   -1.6327 N   0  0  0  0  0  0  0  0  0  0  0  0
   -5.1131    3.3349    1.1991 C   0  0  0  0  0  0  0  0  0  0  0  0
   -4.1555   -5.9011   -2.8485 C   0  0  0  0  0  0  0  0  0  0  0  0
   -6.1691   -5.5681   -1.5370 C   0  0  0  0  0  0  0  0  0  0  0  0
   -6.4522    4.0009    1.4907 C   0  0  0  0  0  0  0  0  0  0  0  0
   -4.0959   -7.4282   -2.8879 C   0  0  0  0  0  0  0  0  0  0  0  0
   -6.8917   -4.7354   -0.4813 C   0  0  0  0  0  0  0  0  0  0  0  0
    1.4520   -2.6291    0.0168 H   0  0  0  0  0  0  0  0  0  0  0  0
   -3.3423   -1.4154    0.0895 H   0  0  0  0  0  0  0  0  0  0  0  0
    1.1035    2.2699   -0.4155 H   0  0  0  0  0  0  0  0  0  0  0  0
    3.4804   -1.2728   -0.0184 H   0  0  0  0  0  0  0  0  0  0  0  0
   -2.9484   -3.2979   -1.1289 H   0  0  0  0  0  0  0  0  0  0  0  0
    3.3198    1.1960   -0.2501 H   0  0  0  0  0  0  0  0  0  0  0  0
   -1.9356   -5.6652   -1.1596 H   0  0  0  0  0  0  0  0  0  0  0  0
   -2.0788   -5.5540    0.5909 H   0  0  0  0  0  0  0  0  0  0  0  0
   -2.7928    3.0353   -0.2976 H   0  0  0  0  0  0  0  0  0  0  0  0
   -3.5419    2.2464   -1.7181 H   0  0  0  0  0  0  0  0  0  0  0  0
   -4.0599   -6.7277   -0.2105 H   0  0  0  0  0  0  0  0  0  0  0  0
   -4.4811   -5.1632    0.4600 H   0  0  0  0  0  0  0  0  0  0  0  0
   -5.0722    3.9356   -0.8745 H   0  0  0  0  0  0  0  0  0  0  0  0
   -5.7635    2.3320   -0.5878 H   0  0  0  0  0  0  0  0  0  0  0  0
   -5.0356    2.4191    1.7961 H   0  0  0  0  0  0  0  0  0  0  0  0
   -4.3061    4.0028    1.5216 H   0  0  0  0  0  0  0  0  0  0  0  0
   -4.7291   -5.5588   -3.7201 H   0  0  0  0  0  0  0  0  0  0  0  0
   -3.1483   -5.5046   -3.0166 H   0  0  0  0  0  0  0  0  0  0  0  0
   -6.6387   -5.3264   -2.4990 H   0  0  0  0  0  0  0  0  0  0  0  0
   -6.3593   -6.6313   -1.3464 H   0  0  0  0  0  0  0  0  0  0  0  0
   -7.2850    3.3318    1.2508 H   0  0  0  0  0  0  0  0  0  0  0  0
   -6.5255    4.2633    2.5513 H   0  0  0  0  0  0  0  0  0  0  0  0
   -6.5724    4.9198    0.9075 H   0  0  0  0  0  0  0  0  0  0  0  0
   -5.0957   -7.8731   -2.8823 H   0  0  0  0  0  0  0  0  0  0  0  0
   -3.5977   -7.7534   -3.8077 H   0  0  0  0  0  0  0  0  0  0  0  0
   -3.5261   -7.8428   -2.0516 H   0  0  0  0  0  0  0  0  0  0  0  0
   -6.5557   -3.6935   -0.4907 H   0  0  0  0  0  0  0  0  0  0  0  0
   -7.9697   -4.7390   -0.6770 H   0  0  0  0  0  0  0  0  0  0  0  0
   -6.7404   -5.1435    0.5229 H   0  0  0  0  0  0  0  0  0  0  0  0
  1  2  2  0  0  0  0
  1  3  1  0  0  0  0
  1  4  1  0  0  0  0
  2  5  1  0  0  0  0
  2  6  1  0  0  0  0
  3  7  2  0  0  0  0
  3  8  1  0  0  0  0
  4  9  2  0  0  0  0
  4 26  1  0  0  0  0
  5 10  2  0  0  0  0
  5 27  1  0  0  0  0
  6 11  1  0  0  0  0
  6 12  2  0  0  0  0
  7 10  1  0  0  0  0
  8 13  2  0  0  0  0
  8 28  1  0  0  0  0
  9 13  1  0  0  0  0
  9 29  1  0  0  0  0
 10 14  1  0  0  0  0
 11 15  1  0  0  0  0
 11 30  1  0  0  0  0
 13 31  1  0  0  0  0
 14 16  1  0  0  0  0
 15 17  1  0  0  0  0
 15 32  1  0  0  0  0
 15 33  1  0  0  0  0
 16 18  1  0  0  0  0
 16 34  1  0  0  0  0
 16 35  1  0  0  0  0
 17 19  1  0  0  0  0
 17 36  1  0  0  0  0
 17 37  1  0  0  0  0
 18 20  1  0  0  0  0
 18 38  1  0  0  0  0
 18 39  1  0  0  0  0
 19 21  1  0  0  0  0
 19 22  1  0  0  0  0
 20 23  1  0  0  0  0
 20 40  1  0  0  0  0
 20 41  1  0  0  0  0
 21 24  1  0  0  0  0
 21 42  1  0  0  0  0
 21 43  1  0  0  0  0
 22 25  1  0  0  0  0
 22 44  1  0  0  0  0
 22 45  1  0  0  0  0
 23 46  1  0  0  0  0
 23 47  1  0  0  0  0
 23 48  1  0  0  0  0
 24 49  1  0  0  0  0
 24 50  1  0  0  0  0
 24 51  1  0  0  0  0
 25 52  1  0  0  0  0
 25 53  1  0  0  0  0
 25 54  1  0  0  0  0
M  END
>  <Mol_ID>
1222

>  <Formula>
C20H30ClN3O2

>  <MolWeight>
379.9241

>  <Cat>
S4038

>  <Name>
Dibucaine HCl

>  <Synonyms>
Cinchocaine HCl

>  <Target>
Sodium Channel

>  <Form>
hydrochloride

>  <CAS>
61-12-1

>  <URL>
http://selleckchem.com/products/dibucaine-cinchocaine-hcl.html

$$$$
