Diclofenac Epolamine
 OpenBabel08302520343D

 51 52  0  0  0  0  0  0  0  0999 V2000
    1.0456   -0.3280   -1.4534 C   0  0  0  0  0  0  0  0  0  0  0  0
    0.1741   -1.3848   -1.2014 C   0  0  0  0  0  0  0  0  0  0  0  0
   -1.1490   -1.1247   -0.8468 C   0  0  0  0  0  0  0  0  0  0  0  0
   -1.6099    0.1965   -0.7187 C   0  0  0  0  0  0  0  0  0  0  0  0
   -0.7234    1.2692   -0.9599 C   0  0  0  0  0  0  0  0  0  0  0  0
    0.6026    0.9917   -1.3245 C   0  0  0  0  0  0  0  0  0  0  0  0
   -1.1630    2.5857   -0.6360 N   0  0  0  0  0  0  0  0  0  0  0  0
   -3.0562    0.4324   -0.3578 C   0  0  0  0  0  0  0  0  0  0  0  0
   -3.9383    0.5429   -1.5780 C   0  0  0  0  0  0  0  0  0  0  0  0
   -3.6003    1.5521   -2.4160 O   0  0  0  0  0  0  0  0  0  0  0  0
   -4.9034   -0.1808   -1.7836 O   0  0  0  0  0  0  0  0  0  0  0  0
   -0.6381    3.8160   -1.1039 C   0  0  0  0  0  0  0  0  0  0  0  0
   -0.2443    3.9870   -2.4355 C   0  0  0  0  0  0  0  0  0  0  0  0
    0.1970    5.2351   -2.8935 C   0  0  0  0  0  0  0  0  0  0  0  0
    0.2262    6.3287   -2.0304 C   0  0  0  0  0  0  0  0  0  0  0  0
   -0.1952    6.1834   -0.7120 C   0  0  0  0  0  0  0  0  0  0  0  0
   -0.6385    4.9353   -0.2560 C   0  0  0  0  0  0  0  0  0  0  0  0
    0.5204   -0.1595    1.6056 O   0  0  0  0  0  0  0  0  0  0  0  0
    0.2411    0.9508    2.4398 C   0  0  0  0  0  0  0  0  0  0  0  0
    1.2157    0.8784    3.6064 C   0  0  0  0  0  0  0  0  0  0  0  0
    2.6099    0.8489    3.1009 N   0  0  0  0  0  0  0  0  0  0  0  0
    3.5355    0.5152    4.1955 C   0  0  0  0  0  0  0  0  0  0  0  0
    3.6596    1.8096    4.9786 C   0  0  0  0  0  0  0  0  0  0  0  0
    3.5555    2.8945    3.9136 C   0  0  0  0  0  0  0  0  0  0  0  0
    3.0714    2.1760    2.6587 C   0  0  0  0  0  0  0  0  0  0  0  0
    2.0867   -0.5318   -1.6890 H   0  0  0  0  0  0  0  0  0  0  0  0
    0.5342   -2.4098   -1.2295 H   0  0  0  0  0  0  0  0  0  0  0  0
   -1.8089   -1.9608   -0.6215 H   0  0  0  0  0  0  0  0  0  0  0  0
    1.3235    1.7938   -1.4531 H   0  0  0  0  0  0  0  0  0  0  0  0
   -1.2042    2.6214    0.3856 H   0  0  0  0  0  0  0  0  0  0  0  0
   -3.4219   -0.3925    0.2651 H   0  0  0  0  0  0  0  0  0  0  0  0
   -3.1907    1.3331    0.2518 H   0  0  0  0  0  0  0  0  0  0  0  0
   -2.8037    2.0427   -2.1147 H   0  0  0  0  0  0  0  0  0  0  0  0
   -0.2844    3.1537   -3.1309 H   0  0  0  0  0  0  0  0  0  0  0  0
    0.4979    5.3447   -3.9312 H   0  0  0  0  0  0  0  0  0  0  0  0
    0.5612    7.2945   -2.3929 H   0  0  0  0  0  0  0  0  0  0  0  0
   -0.1937    7.0374   -0.0451 H   0  0  0  0  0  0  0  0  0  0  0  0
   -0.9790    4.8537    0.7754 H   0  0  0  0  0  0  0  0  0  0  0  0
    1.4930   -0.1434    1.4852 H   0  0  0  0  0  0  0  0  0  0  0  0
    0.3511    1.8748    1.8631 H   0  0  0  0  0  0  0  0  0  0  0  0
   -0.7981    0.8801    2.7704 H   0  0  0  0  0  0  0  0  0  0  0  0
    1.0164    1.6909    4.3125 H   0  0  0  0  0  0  0  0  0  0  0  0
    1.0190   -0.0756    4.1141 H   0  0  0  0  0  0  0  0  0  0  0  0
    4.5073    0.2366    3.7677 H   0  0  0  0  0  0  0  0  0  0  0  0
    3.1997   -0.3298    4.8052 H   0  0  0  0  0  0  0  0  0  0  0  0
    2.8293    1.9056    5.6896 H   0  0  0  0  0  0  0  0  0  0  0  0
    4.5915    1.8688    5.5449 H   0  0  0  0  0  0  0  0  0  0  0  0
    2.8477    3.6699    4.2242 H   0  0  0  0  0  0  0  0  0  0  0  0
    4.5269    3.3668    3.7374 H   0  0  0  0  0  0  0  0  0  0  0  0
    2.3267    2.7583    2.1068 H   0  0  0  0  0  0  0  0  0  0  0  0
    3.9159    2.0366    1.9717 H   0  0  0  0  0  0  0  0  0  0  0  0
  1  2  2  0  0  0  0
  1  6  1  0  0  0  0
  1 26  1  0  0  0  0
  2  3  1  0  0  0  0
  2 27  1  0  0  0  0
  3  4  2  0  0  0  0
  3 28  1  0  0  0  0
  4  8  1  0  0  0  0
  4  5  1  0  0  0  0
  5  6  2  0  0  0  0
  5  7  1  0  0  0  0
  6 29  1  0  0  0  0
  7 12  1  0  0  0  0
  7 30  1  0  0  0  0
  8  9  1  0  0  0  0
  8 31  1  0  0  0  0
  8 32  1  0  0  0  0
  9 10  1  0  0  0  0
  9 11  2  0  0  0  0
 10 33  1  0  0  0  0
 12 13  2  0  0  0  0
 12 17  1  0  0  0  0
 13 14  1  0  0  0  0
 13 34  1  0  0  0  0
 14 15  2  0  0  0  0
 14 35  1  0  0  0  0
 15 16  1  0  0  0  0
 15 36  1  0  0  0  0
 16 17  2  0  0  0  0
 16 37  1  0  0  0  0
 17 38  1  0  0  0  0
 18 19  1  0  0  0  0
 18 39  1  0  0  0  0
 19 20  1  0  0  0  0
 19 40  1  0  0  0  0
 19 41  1  0  0  0  0
 20 21  1  0  0  0  0
 20 42  1  0  0  0  0
 20 43  1  0  0  0  0
 21 22  1  0  0  0  0
 22 23  1  0  0  0  0
 22 44  1  0  0  0  0
 22 45  1  0  0  0  0
 23 24  1  0  0  0  0
 23 46  1  0  0  0  0
 23 47  1  0  0  0  0
 24 25  1  0  0  0  0
 24 48  1  0  0  0  0
 24 49  1  0  0  0  0
 25 21  1  0  0  0  0
 25 50  1  0  0  0  0
 25 51  1  0  0  0  0
M  END
>  <Mol_ID>
3383

>  <Formula>
C20H24Cl2N2O3

>  <MolWeight>
411.32216

>  <Cat>
S5737

>  <Name>
Diclofenac Epolamine

>  <Synonyms>
DHEP, DIEP, diclofenac hydroxyethylpyrrolidine

>  <Target>
Immunology & Inflammation related

>  <Form>
Epolamine

>  <CAS>
119623-66-4

>  <URL>
http://www.selleckchem.com/products/diclofenac-epolamine.html

$$$$
