Diclofenac acid
 OpenBabel08302520393D

 30 31  0  0  0  0  0  0  0  0999 V2000
    0.8125    0.0383    0.0512 N   0  0  0  0  0  0  0  0  0  0  0  0
    0.2733   -0.7533   -0.9829 C   0  0  0  0  0  0  0  0  0  0  0  0
    0.1841    0.9426    0.9266 C   0  0  0  0  0  0  0  0  0  0  0  0
    3.2197   -1.9155   -0.5701 C   0  0  0  0  0  0  0  0  0  0  0  0
    0.7716   -2.0491   -1.2384 C   0  0  0  0  0  0  0  0  0  0  0  0
   -0.8280   -0.2962   -1.7274 C   0  0  0  0  0  0  0  0  0  0  0  0
   -1.1806    0.8652    1.2286 C   0  0  0  0  0  0  0  0  0  0  0  0
    0.9296    1.9840    1.4955 C   0  0  0  0  0  0  0  0  0  0  0  0
    1.9121   -2.6558   -0.4476 C   0  0  0  0  0  0  0  0  0  0  0  0
    3.4399   -0.7636   -0.2209 O   0  0  0  0  0  0  0  0  0  0  0  0
    0.1349   -2.8490   -2.2090 C   0  0  0  0  0  0  0  0  0  0  0  0
   -1.4475   -1.0979   -2.6846 C   0  0  0  0  0  0  0  0  0  0  0  0
   -1.7883    1.7965    2.0731 C   0  0  0  0  0  0  0  0  0  0  0  0
    0.3258    2.9163    2.3450 C   0  0  0  0  0  0  0  0  0  0  0  0
   -0.9693   -2.3794   -2.9202 C   0  0  0  0  0  0  0  0  0  0  0  0
   -1.0345    2.8226    2.6322 C   0  0  0  0  0  0  0  0  0  0  0  0
    4.2088   -2.6615   -1.0998 O   0  0  0  0  0  0  0  0  0  0  0  0
    1.8322    0.0333    0.1025 H   0  0  0  0  0  0  0  0  0  0  0  0
   -1.2078    0.7110   -1.5688 H   0  0  0  0  0  0  0  0  0  0  0  0
   -1.7851    0.0585    0.8222 H   0  0  0  0  0  0  0  0  0  0  0  0
    1.9894    2.0823    1.2730 H   0  0  0  0  0  0  0  0  0  0  0  0
    1.6434   -2.7119    0.6137 H   0  0  0  0  0  0  0  0  0  0  0  0
    2.0781   -3.6934   -0.7636 H   0  0  0  0  0  0  0  0  0  0  0  0
    0.4837   -3.8615   -2.4037 H   0  0  0  0  0  0  0  0  0  0  0  0
   -2.3056   -0.7204   -3.2338 H   0  0  0  0  0  0  0  0  0  0  0  0
   -2.8499    1.7119    2.2914 H   0  0  0  0  0  0  0  0  0  0  0  0
    0.9178    3.7175    2.7783 H   0  0  0  0  0  0  0  0  0  0  0  0
   -1.4600   -3.0167   -3.6509 H   0  0  0  0  0  0  0  0  0  0  0  0
   -1.5058    3.5459    3.2927 H   0  0  0  0  0  0  0  0  0  0  0  0
    4.9831   -2.0597   -1.1147 H   0  0  0  0  0  0  0  0  0  0  0  0
  1  2  1  0  0  0  0
  1  3  1  0  0  0  0
  1 18  1  0  0  0  0
  2  5  2  0  0  0  0
  2  6  1  0  0  0  0
  3  7  2  0  0  0  0
  3  8  1  0  0  0  0
  4  9  1  0  0  0  0
  4 10  2  0  0  0  0
  4 17  1  0  0  0  0
  5 11  1  0  0  0  0
  5  9  1  0  0  0  0
  6 12  2  0  0  0  0
  6 19  1  0  0  0  0
  7 13  1  0  0  0  0
  7 20  1  0  0  0  0
  8 14  2  0  0  0  0
  8 21  1  0  0  0  0
  9 22  1  0  0  0  0
  9 23  1  0  0  0  0
 11 15  2  0  0  0  0
 11 24  1  0  0  0  0
 12 15  1  0  0  0  0
 12 25  1  0  0  0  0
 13 16  2  0  0  0  0
 13 26  1  0  0  0  0
 14 16  1  0  0  0  0
 14 27  1  0  0  0  0
 15 28  1  0  0  0  0
 16 29  1  0  0  0  0
 17 30  1  0  0  0  0
M  END
>  <Mol_ID>
3549

>  <Formula>
C14H11Cl2NO2

>  <MolWeight>
296.14864

>  <Cat>
S6073

>  <Name>
Diclofenac acid

>  <Synonyms>
N/A

>  <Target>
COX,Immunology & Inflammation related

>  <Form>
free base

>  <CAS>
15307-86-5

>  <URL>
http://www.selleck.cn/products/diclofenac-acid.html

$$$$
