Dicoumarol.cdx
 OpenBabel08302522063D

 37 40  0  0  0  0  0  0  0  0999 V2000
   -2.7670    1.2816   -0.1371 C   0  0  0  0  0  0  0  0  0  0  0  0
   -2.9882   -0.0465   -0.5027 C   0  0  0  0  0  0  0  0  0  0  0  0
   -1.9104   -0.9288   -0.6223 C   0  0  0  0  0  0  0  0  0  0  0  0
   -0.6022   -0.4985   -0.3634 C   0  0  0  0  0  0  0  0  0  0  0  0
   -0.4088    0.8238    0.0205 C   0  0  0  0  0  0  0  0  0  0  0  0
   -1.4697    1.7231    0.1222 C   0  0  0  0  0  0  0  0  0  0  0  0
    0.5570   -1.3900   -0.4252 C   0  0  0  0  0  0  0  0  0  0  0  0
    1.7625   -0.9764    0.0045 C   0  0  0  0  0  0  0  0  0  0  0  0
    1.9534    0.4307    0.4438 C   0  0  0  0  0  0  0  0  0  0  0  0
    0.8722    1.2945    0.3596 O   0  0  0  0  0  0  0  0  0  0  0  0
    3.0475    0.8078    0.8620 O   0  0  0  0  0  0  0  0  0  0  0  0
    0.2759   -2.6529   -0.9048 O   0  0  0  0  0  0  0  0  0  0  0  0
    3.0109   -1.8278    0.0782 C   0  0  0  0  0  0  0  0  0  0  0  0
    3.0946   -2.5744    1.3937 C   0  0  0  0  0  0  0  0  0  0  0  0
    2.3315   -3.8478    1.4150 C   0  0  0  0  0  0  0  0  0  0  0  0
    2.1132   -4.4589    2.6325 O   0  0  0  0  0  0  0  0  0  0  0  0
    2.8614   -4.0800    3.7552 C   0  0  0  0  0  0  0  0  0  0  0  0
    3.7533   -3.0116    3.6998 C   0  0  0  0  0  0  0  0  0  0  0  0
    3.7961   -2.2011    2.4764 C   0  0  0  0  0  0  0  0  0  0  0  0
    1.8505   -4.3027    0.3784 O   0  0  0  0  0  0  0  0  0  0  0  0
    2.6869   -4.8487    4.9061 C   0  0  0  0  0  0  0  0  0  0  0  0
    3.4553   -4.5668    6.0323 C   0  0  0  0  0  0  0  0  0  0  0  0
    4.3807   -3.5251    5.9930 C   0  0  0  0  0  0  0  0  0  0  0  0
    4.5234   -2.7473    4.8367 C   0  0  0  0  0  0  0  0  0  0  0  0
    4.5489   -1.0474    2.5638 O   0  0  0  0  0  0  0  0  0  0  0  0
   -3.6079    1.9654   -0.0451 H   0  0  0  0  0  0  0  0  0  0  0  0
   -3.9996   -0.4012   -0.6882 H   0  0  0  0  0  0  0  0  0  0  0  0
   -2.1038   -1.9632   -0.8991 H   0  0  0  0  0  0  0  0  0  0  0  0
   -1.2949    2.7530    0.4185 H   0  0  0  0  0  0  0  0  0  0  0  0
    0.9824   -3.2935   -0.6805 H   0  0  0  0  0  0  0  0  0  0  0  0
    3.0439   -2.5261   -0.7678 H   0  0  0  0  0  0  0  0  0  0  0  0
    3.9129   -1.2226   -0.0794 H   0  0  0  0  0  0  0  0  0  0  0  0
    1.9655   -5.6606    4.9214 H   0  0  0  0  0  0  0  0  0  0  0  0
    3.3364   -5.1618    6.9355 H   0  0  0  0  0  0  0  0  0  0  0  0
    4.9920   -3.3126    6.8689 H   0  0  0  0  0  0  0  0  0  0  0  0
    5.2424   -1.9300    4.8364 H   0  0  0  0  0  0  0  0  0  0  0  0
    4.3085   -0.4141    1.8574 H   0  0  0  0  0  0  0  0  0  0  0  0
  1  2  2  0  0  0  0
  1 26  1  0  0  0  0
  2  3  1  0  0  0  0
  2 27  1  0  0  0  0
  3  4  2  0  0  0  0
  3 28  1  0  0  0  0
  4  5  1  0  0  0  0
  4  7  1  0  0  0  0
  5  6  2  0  0  0  0
  6  1  1  0  0  0  0
  6 29  1  0  0  0  0
  7  8  2  0  0  0  0
  7 12  1  0  0  0  0
  8  9  1  0  0  0  0
  8 13  1  0  0  0  0
  9 10  1  0  0  0  0
  9 11  2  0  0  0  0
 10  5  1  0  0  0  0
 12 30  1  0  0  0  0
 13 14  1  0  0  0  0
 13 31  1  0  0  0  0
 13 32  1  0  0  0  0
 14 15  1  0  0  0  0
 15 16  1  0  0  0  0
 15 20  2  0  0  0  0
 16 17  1  0  0  0  0
 17 18  2  0  0  0  0
 17 21  1  0  0  0  0
 18 19  1  0  0  0  0
 19 14  2  0  0  0  0
 19 25  1  0  0  0  0
 21 22  2  0  0  0  0
 21 33  1  0  0  0  0
 22 23  1  0  0  0  0
 22 34  1  0  0  0  0
 23 24  2  0  0  0  0
 23 35  1  0  0  0  0
 24 18  1  0  0  0  0
 24 36  1  0  0  0  0
 25 37  1  0  0  0  0
M  END
>  <Mol_ID>
1432

>  <Formula>
C19H12O6

>  <MolWeight>
336.29498

>  <Cat>
S4299

>  <Name>
Dicoumarol

>  <Synonyms>
Dicumarol

>  <Target>
PDHK

>  <Form>
free base

>  <CAS>
66-76-2

>  <URL>
http://selleckchem.com/products/dicoumarol.html

$$$$
