Diethylcarbamazine (citrate).cdx
 OpenBabel08302519503D

 56 55  0  0  0  0  0  0  0  0999 V2000
    0.6218    0.7943    0.4756 N   0  0  0  0  0  0  0  0  0  0  0  0
    1.9086    1.1144    0.0776 C   0  0  0  0  0  0  0  0  0  0  0  0
   -0.3173    0.1310   -0.4562 C   0  0  0  0  0  0  0  0  0  0  0  0
    0.1328    0.7467    1.8572 C   0  0  0  0  0  0  0  0  0  0  0  0
    2.7619    1.7410    0.9660 N   0  0  0  0  0  0  0  0  0  0  0  0
    2.3307    0.7565   -1.0249 O   0  0  0  0  0  0  0  0  0  0  0  0
   -1.7845    0.6093   -0.2767 C   0  0  0  0  0  0  0  0  0  0  0  0
   -1.2325    1.4456    1.9156 C   0  0  0  0  0  0  0  0  0  0  0  0
    4.2009    1.7895    0.6531 C   0  0  0  0  0  0  0  0  0  0  0  0
    2.2494    2.8556    1.7701 C   0  0  0  0  0  0  0  0  0  0  0  0
   -2.2625    0.7483    1.1203 N   0  0  0  0  0  0  0  0  0  0  0  0
    4.9446    0.4631    0.4585 C   0  0  0  0  0  0  0  0  0  0  0  0
    2.9414    4.1937    1.5829 C   0  0  0  0  0  0  0  0  0  0  0  0
   -2.5986   -0.5441    1.7205 C   0  0  0  0  0  0  0  0  0  0  0  0
    2.3903   -1.8390   -0.3848 O   0  0  0  0  0  0  0  0  0  0  0  0
    1.8864   -2.2154   -1.5708 C   0  0  0  0  0  0  0  0  0  0  0  0
    1.5786   -3.6646   -1.6009 C   0  0  0  0  0  0  0  0  0  0  0  0
    1.8337   -1.4612   -2.5291 O   0  0  0  0  0  0  0  0  0  0  0  0
    0.5391   -4.0653   -2.6532 C   0  0  0  0  0  0  0  0  0  0  0  0
    0.6754   -3.4892   -4.0681 C   0  0  0  0  0  0  0  0  0  0  0  0
    1.9908   -3.8445   -4.6997 C   0  0  0  0  0  0  0  0  0  0  0  0
    0.6092   -5.5932   -2.7336 C   0  0  0  0  0  0  0  0  0  0  0  0
   -0.7580   -3.6761   -2.1575 O   0  0  0  0  0  0  0  0  0  0  0  0
    1.5417   -6.3107   -2.3980 O   0  0  0  0  0  0  0  0  0  0  0  0
   -0.5237   -6.1410   -3.2144 O   0  0  0  0  0  0  0  0  0  0  0  0
    2.9241   -2.8835   -4.5593 O   0  0  0  0  0  0  0  0  0  0  0  0
    2.1949   -4.8980   -5.2752 O   0  0  0  0  0  0  0  0  0  0  0  0
   -0.0110    0.2788   -1.4957 H   0  0  0  0  0  0  0  0  0  0  0  0
   -0.2735   -0.9454   -0.2448 H   0  0  0  0  0  0  0  0  0  0  0  0
    0.0700   -0.3107    2.1414 H   0  0  0  0  0  0  0  0  0  0  0  0
    0.8196    1.1701    2.5817 H   0  0  0  0  0  0  0  0  0  0  0  0
   -1.8706    1.5990   -0.7440 H   0  0  0  0  0  0  0  0  0  0  0  0
   -2.4633   -0.0411   -0.8440 H   0  0  0  0  0  0  0  0  0  0  0  0
   -1.1347    2.4659    1.5174 H   0  0  0  0  0  0  0  0  0  0  0  0
   -1.5603    1.5572    2.9525 H   0  0  0  0  0  0  0  0  0  0  0  0
    4.3400    2.4086   -0.2421 H   0  0  0  0  0  0  0  0  0  0  0  0
    4.7141    2.2783    1.4889 H   0  0  0  0  0  0  0  0  0  0  0  0
    1.1990    3.0244    1.5288 H   0  0  0  0  0  0  0  0  0  0  0  0
    2.3405    2.5556    2.8199 H   0  0  0  0  0  0  0  0  0  0  0  0
    4.5828   -0.1107   -0.3955 H   0  0  0  0  0  0  0  0  0  0  0  0
    6.0060    0.6703    0.2669 H   0  0  0  0  0  0  0  0  0  0  0  0
    4.8874   -0.1630    1.3530 H   0  0  0  0  0  0  0  0  0  0  0  0
    3.1487    4.4031    0.5301 H   0  0  0  0  0  0  0  0  0  0  0  0
    2.2983    4.9871    1.9758 H   0  0  0  0  0  0  0  0  0  0  0  0
    3.8795    4.2279    2.1460 H   0  0  0  0  0  0  0  0  0  0  0  0
   -1.7830   -1.2719    1.6746 H   0  0  0  0  0  0  0  0  0  0  0  0
   -2.8717   -0.4122    2.7744 H   0  0  0  0  0  0  0  0  0  0  0  0
   -3.4680   -0.9853    1.2234 H   0  0  0  0  0  0  0  0  0  0  0  0
    2.6058   -0.8886   -0.5412 H   0  0  0  0  0  0  0  0  0  0  0  0
    2.5452   -4.1512   -1.7720 H   0  0  0  0  0  0  0  0  0  0  0  0
    1.2151   -3.9561   -0.6065 H   0  0  0  0  0  0  0  0  0  0  0  0
   -0.1167   -3.8866   -4.7223 H   0  0  0  0  0  0  0  0  0  0  0  0
    0.4950   -2.4120   -4.1183 H   0  0  0  0  0  0  0  0  0  0  0  0
   -1.4083   -4.2048   -2.6638 H   0  0  0  0  0  0  0  0  0  0  0  0
   -0.2917   -7.0956   -3.2346 H   0  0  0  0  0  0  0  0  0  0  0  0
    2.6241   -2.0744   -4.0721 H   0  0  0  0  0  0  0  0  0  0  0  0
  1  2  1  0  0  0  0
  1  3  1  0  0  0  0
  1  4  1  0  0  0  0
  2  5  1  0  0  0  0
  2  6  2  0  0  0  0
  3  7  1  0  0  0  0
  3 28  1  0  0  0  0
  3 29  1  0  0  0  0
  4  8  1  0  0  0  0
  4 30  1  0  0  0  0
  4 31  1  0  0  0  0
  5  9  1  0  0  0  0
  5 10  1  0  0  0  0
  7 11  1  0  0  0  0
  7 32  1  0  0  0  0
  7 33  1  0  0  0  0
  8 11  1  0  0  0  0
  8 34  1  0  0  0  0
  8 35  1  0  0  0  0
  9 12  1  0  0  0  0
  9 36  1  0  0  0  0
  9 37  1  0  0  0  0
 10 13  1  0  0  0  0
 10 38  1  0  0  0  0
 10 39  1  0  0  0  0
 11 14  1  0  0  0  0
 12 40  1  0  0  0  0
 12 41  1  0  0  0  0
 12 42  1  0  0  0  0
 13 43  1  0  0  0  0
 13 44  1  0  0  0  0
 13 45  1  0  0  0  0
 14 46  1  0  0  0  0
 14 47  1  0  0  0  0
 14 48  1  0  0  0  0
 15 16  1  0  0  0  0
 15 49  1  0  0  0  0
 16 17  1  0  0  0  0
 16 18  2  0  0  0  0
 17 19  1  0  0  0  0
 17 50  1  0  0  0  0
 17 51  1  0  0  0  0
 19 20  1  0  0  0  0
 19 22  1  0  0  0  0
 19 23  1  0  0  0  0
 20 21  1  0  0  0  0
 20 52  1  0  0  0  0
 20 53  1  0  0  0  0
 21 26  1  0  0  0  0
 21 27  2  0  0  0  0
 22 24  2  0  0  0  0
 22 25  1  0  0  0  0
 23 54  1  0  0  0  0
 25 55  1  0  0  0  0
 26 56  1  0  0  0  0
M  END
>  <Mol_ID>
1498

>  <Formula>
C16H29N3O8

>  <MolWeight>
391.41676

>  <Cat>
S4564

>  <Name>
Diethylcarbamazine citrate

>  <Synonyms>
N/A

>  <Target>
Parasite

>  <Form>
citrate

>  <CAS>
1642-54-2

>  <URL>
http://selleckchem.com/products/diethylcarbamazine-citrate.html

$$$$
