Diethyl fumarate
 OpenBabel08302521363D

 24 23  0  0  0  0  0  0  0  0999 V2000
    0.9733   -0.2399    0.1241 C   0  0  0  0  0  0  0  0  0  0  0  0
    0.2240   -1.3572    0.7315 C   0  0  0  0  0  0  0  0  0  0  0  0
    0.1933    0.8298   -0.1745 O   0  0  0  0  0  0  0  0  0  0  0  0
    2.1757   -0.3272   -0.0846 O   0  0  0  0  0  0  0  0  0  0  0  0
   -1.1023   -1.3953    0.9216 C   0  0  0  0  0  0  0  0  0  0  0  0
    0.8600    1.8939   -0.8805 C   0  0  0  0  0  0  0  0  0  0  0  0
   -1.8172   -2.5607    1.4859 C   0  0  0  0  0  0  0  0  0  0  0  0
    1.5168    2.8726    0.0787 C   0  0  0  0  0  0  0  0  0  0  0  0
   -0.9699   -3.5584    1.8476 O   0  0  0  0  0  0  0  0  0  0  0  0
   -3.0352   -2.5836    1.5789 O   0  0  0  0  0  0  0  0  0  0  0  0
   -1.5810   -4.7771    2.3066 C   0  0  0  0  0  0  0  0  0  0  0  0
   -1.8434   -4.7279    3.8002 C   0  0  0  0  0  0  0  0  0  0  0  0
    0.8604   -2.1979    0.9916 H   0  0  0  0  0  0  0  0  0  0  0  0
   -1.7477   -0.5681    0.6443 H   0  0  0  0  0  0  0  0  0  0  0  0
    1.5926    1.4954   -1.5931 H   0  0  0  0  0  0  0  0  0  0  0  0
    0.1011    2.4180   -1.4711 H   0  0  0  0  0  0  0  0  0  0  0  0
    2.1800    2.3617    0.7831 H   0  0  0  0  0  0  0  0  0  0  0  0
    2.0988    3.6195   -0.4713 H   0  0  0  0  0  0  0  0  0  0  0  0
    0.7593    3.3959    0.6710 H   0  0  0  0  0  0  0  0  0  0  0  0
   -2.4983   -4.9975    1.7484 H   0  0  0  0  0  0  0  0  0  0  0  0
   -0.8740   -5.5852    2.0899 H   0  0  0  0  0  0  0  0  0  0  0  0
   -2.5726   -3.9498    4.0463 H   0  0  0  0  0  0  0  0  0  0  0  0
   -2.2287   -5.6887    4.1565 H   0  0  0  0  0  0  0  0  0  0  0  0
   -0.9250   -4.4941    4.3482 H   0  0  0  0  0  0  0  0  0  0  0  0
  1  2  1  0  0  0  0
  1  3  1  0  0  0  0
  1  4  2  0  0  0  0
  2  5  2  0  0  0  0
  2 13  1  0  0  0  0
  3  6  1  0  0  0  0
  5  7  1  0  0  0  0
  5 14  1  0  0  0  0
  6  8  1  0  0  0  0
  6 15  1  0  0  0  0
  6 16  1  0  0  0  0
  7  9  1  0  0  0  0
  7 10  2  0  0  0  0
  8 17  1  0  0  0  0
  8 18  1  0  0  0  0
  8 19  1  0  0  0  0
  9 11  1  0  0  0  0
 11 12  1  0  0  0  0
 11 20  1  0  0  0  0
 11 21  1  0  0  0  0
 12 22  1  0  0  0  0
 12 23  1  0  0  0  0
 12 24  1  0  0  0  0
M  END
>  <Mol_ID>
7169

>  <Formula>
C8H12O4

>  <MolWeight>
172.17848

>  <Cat>
E4164

>  <Name>
Diethyl fumarate

>  <Synonyms>
Fumaric acid

>  <Target>
Others

>  <Form>
Free base

>  <CAS>
623-91-6

>  <URL>
https://www.selleckchem.com/products/diethyl-fumarate.html

$$$$
