Dihydroethidium
 OpenBabel08302521303D

 45 48  0  0  0  0  0  0  0  0999 V2000
    1.5395   -1.5474   -0.0693 C   0  0  0  0  0  0  0  0  0  0  0  0
    2.9334   -1.5198   -0.0654 C   0  0  0  0  0  0  0  0  0  0  0  0
    3.6040   -0.3094   -0.0209 C   0  0  0  0  0  0  0  0  0  0  0  0
    2.8482    0.8671   -0.0811 C   0  0  0  0  0  0  0  0  0  0  0  0
    1.4318    0.8849   -0.0639 C   0  0  0  0  0  0  0  0  0  0  0  0
    0.7217    2.0863   -0.0652 N   0  0  0  0  0  0  0  0  0  0  0  0
   -0.7383    2.1083    0.1490 C   0  0  3  0  0  0  0  0  0  0  0  0
   -1.4445    0.7811   -0.0638 C   0  0  0  0  0  0  0  0  0  0  0  0
   -2.8602    0.7665   -0.1107 C   0  0  0  0  0  0  0  0  0  0  0  0
   -3.5790   -0.4230   -0.1631 C   0  0  0  0  0  0  0  0  0  0  0  0
   -2.8664   -1.6132   -0.1068 C   0  0  0  0  0  0  0  0  0  0  0  0
   -1.4645   -1.6126   -0.1026 C   0  0  0  0  0  0  0  0  0  0  0  0
   -0.7188   -0.4175   -0.0868 C   0  0  0  0  0  0  0  0  0  0  0  0
    0.7624   -0.3670   -0.0591 C   0  0  0  0  0  0  0  0  0  0  0  0
    4.9973   -0.2685   -0.1504 N   0  0  0  0  0  0  0  0  0  0  0  0
   -4.9680   -0.4190   -0.0046 N   0  0  0  0  0  0  0  0  0  0  0  0
   -1.0675    2.6747    1.5358 C   0  0  0  0  0  0  0  0  0  0  0  0
   -1.8433    3.8407    1.6596 C   0  0  0  0  0  0  0  0  0  0  0  0
   -2.1935    4.3297    2.9192 C   0  0  0  0  0  0  0  0  0  0  0  0
   -1.7785    3.6595    4.0684 C   0  0  0  0  0  0  0  0  0  0  0  0
   -1.0091    2.5032    3.9621 C   0  0  0  0  0  0  0  0  0  0  0  0
   -0.6523    2.0156    2.7049 C   0  0  0  0  0  0  0  0  0  0  0  0
    1.3780    3.3963   -0.1802 C   0  0  0  0  0  0  0  0  0  0  0  0
    1.6500    3.7480   -1.6346 C   0  0  0  0  0  0  0  0  0  0  0  0
    1.0778   -2.5284   -0.0945 H   0  0  0  0  0  0  0  0  0  0  0  0
    3.4843   -2.4551   -0.1071 H   0  0  0  0  0  0  0  0  0  0  0  0
    3.4056    1.7948   -0.1364 H   0  0  0  0  0  0  0  0  0  0  0  0
   -1.1482    2.7876   -0.6128 H   0  0  0  0  0  0  0  0  0  0  0  0
   -3.4017    1.7083   -0.0551 H   0  0  0  0  0  0  0  0  0  0  0  0
   -3.3903   -2.5638   -0.0557 H   0  0  0  0  0  0  0  0  0  0  0  0
   -0.9808   -2.5825   -0.0768 H   0  0  0  0  0  0  0  0  0  0  0  0
    5.4127    0.5869    0.2036 H   0  0  0  0  0  0  0  0  0  0  0  0
    5.4638   -1.0957    0.2080 H   0  0  0  0  0  0  0  0  0  0  0  0
   -5.4256   -1.2680   -0.3191 H   0  0  0  0  0  0  0  0  0  0  0  0
   -5.4227    0.4204   -0.3478 H   0  0  0  0  0  0  0  0  0  0  0  0
   -2.1890    4.3683    0.7738 H   0  0  0  0  0  0  0  0  0  0  0  0
   -2.7986    5.2281    3.0044 H   0  0  0  0  0  0  0  0  0  0  0  0
   -2.0592    4.0351    5.0485 H   0  0  0  0  0  0  0  0  0  0  0  0
   -0.6932    1.9722    4.8559 H   0  0  0  0  0  0  0  0  0  0  0  0
   -0.0606    1.1051    2.6346 H   0  0  0  0  0  0  0  0  0  0  0  0
    0.7402    4.1855    0.2350 H   0  0  0  0  0  0  0  0  0  0  0  0
    2.2947    3.4478    0.4169 H   0  0  0  0  0  0  0  0  0  0  0  0
    0.7152    3.8064   -2.2020 H   0  0  0  0  0  0  0  0  0  0  0  0
    2.1452    4.7223   -1.7009 H   0  0  0  0  0  0  0  0  0  0  0  0
    2.2919    3.0078   -2.1211 H   0  0  0  0  0  0  0  0  0  0  0  0
  1  2  2  0  0  0  0
  1 14  1  0  0  0  0
  1 25  1  0  0  0  0
  2  3  1  0  0  0  0
  2 26  1  0  0  0  0
  3  4  2  0  0  0  0
  3 15  1  0  0  0  0
  4  5  1  0  0  0  0
  4 27  1  0  0  0  0
  5  6  1  0  0  0  0
  5 14  2  0  0  0  0
  6  7  1  0  0  0  0
  6 23  1  0  0  0  0
  7  8  1  0  0  0  0
  7 17  1  0  0  0  0
  7 28  1  0  0  0  0
  8  9  1  0  0  0  0
  8 13  2  0  0  0  0
  9 10  2  0  0  0  0
  9 29  1  0  0  0  0
 10 11  1  0  0  0  0
 10 16  1  0  0  0  0
 11 12  2  0  0  0  0
 11 30  1  0  0  0  0
 12 13  1  0  0  0  0
 12 31  1  0  0  0  0
 13 14  1  0  0  0  0
 15 32  1  0  0  0  0
 15 33  1  0  0  0  0
 16 34  1  0  0  0  0
 16 35  1  0  0  0  0
 17 18  2  0  0  0  0
 17 22  1  0  0  0  0
 18 19  1  0  0  0  0
 18 36  1  0  0  0  0
 19 20  2  0  0  0  0
 19 37  1  0  0  0  0
 20 21  1  0  0  0  0
 20 38  1  0  0  0  0
 21 22  2  0  0  0  0
 21 39  1  0  0  0  0
 22 40  1  0  0  0  0
 23 24  1  0  0  0  0
 23 41  1  0  0  0  0
 23 42  1  0  0  0  0
 24 43  1  0  0  0  0
 24 44  1  0  0  0  0
 24 45  1  0  0  0  0
M  END
>  <Mol_ID>
5523

>  <Formula>
C21H21N3

>  <MolWeight>
315.41154

>  <Cat>
S6792

>  <Name>
Dihydroethidium

>  <Synonyms>
DHE, HE, Hydroethidine, PD-MY 003

>  <Target>
Dyes

>  <Form>
Free Base

>  <CAS>
104821-25-2

>  <URL>
https://www.selleckchem.com/products/dihydroethidium.html

$$$$
