Dihydromethysticin
 OpenBabel08302521453D

 36 38  0  0  1  0  0  0  0  0999 V2000
    0.9347   -0.0589   -0.0106 C   0  0  0  0  0  0  0  0  0  0  0  0
    0.4140   -0.8829   -1.1947 C   0  0  0  0  0  0  0  0  0  0  0  0
    0.9783   -1.3142   -6.1329 O   0  0  0  0  0  0  0  0  0  0  0  0
    0.0772   -2.4096   -6.2744 C   0  0  0  0  0  0  0  0  0  0  0  0
    0.8742    2.8538   -3.9832 O   0  0  0  0  0  0  0  0  0  0  0  0
   -1.1583   -0.6184    3.0880 C   0  0  0  0  0  0  0  0  0  0  0  0
   -0.4432   -1.5919    3.7428 C   0  0  0  0  0  0  0  0  0  0  0  0
   -0.7427   -0.0990    1.8792 C   0  0  0  0  0  0  0  0  0  0  0  0
   -2.2821   -0.2568    3.7639 O   0  0  0  0  0  0  0  0  0  0  0  0
    0.7293   -2.0989    3.2276 C   0  0  0  0  0  0  0  0  0  0  0  0
   -1.0280   -1.9681    4.9122 O   0  0  0  0  0  0  0  0  0  0  0  0
    0.4466   -0.5922    1.3175 C   0  0  0  0  0  0  0  0  0  0  0  0
   -2.2186   -1.1534    4.8922 C   0  0  0  0  0  0  0  0  0  0  0  0
    1.1740   -1.5950    1.9989 C   0  0  0  0  0  0  0  0  0  0  0  0
    0.9448   -0.3636   -2.5396 C   0  0  1  0  0  0  0  0  0  0  0  0
    0.4033   -1.1971   -3.7030 C   0  0  0  0  0  0  0  0  0  0  0  0
    0.5619    1.0160   -2.6974 O   0  0  0  0  0  0  0  0  0  0  0  0
    0.7996   -0.5471   -4.9970 C   0  0  0  0  0  0  0  0  0  0  0  0
    0.8400    1.6362   -3.8746 C   0  0  0  0  0  0  0  0  0  0  0  0
    1.0517    0.7676   -5.0445 C   0  0  0  0  0  0  0  0  0  0  0  0
    0.6235    0.9882   -0.1074 H   0  0  0  0  0  0  0  0  0  0  0  0
    2.0323   -0.0485   -0.0117 H   0  0  0  0  0  0  0  0  0  0  0  0
    0.7022   -1.9346   -1.0732 H   0  0  0  0  0  0  0  0  0  0  0  0
   -0.6833   -0.8476   -1.1944 H   0  0  0  0  0  0  0  0  0  0  0  0
    0.3473   -3.2213   -5.5923 H   0  0  0  0  0  0  0  0  0  0  0  0
   -0.9611   -2.0984   -6.1140 H   0  0  0  0  0  0  0  0  0  0  0  0
    0.1651   -2.7907   -7.2963 H   0  0  0  0  0  0  0  0  0  0  0  0
   -1.3258    0.6721    1.3863 H   0  0  0  0  0  0  0  0  0  0  0  0
    1.2857   -2.8636    3.7572 H   0  0  0  0  0  0  0  0  0  0  0  0
   -2.2589   -0.5640    5.8155 H   0  0  0  0  0  0  0  0  0  0  0  0
   -3.0931   -1.8143    4.8605 H   0  0  0  0  0  0  0  0  0  0  0  0
    2.0974   -1.9831    1.5747 H   0  0  0  0  0  0  0  0  0  0  0  0
    2.0425   -0.4034   -2.5232 H   0  0  0  0  0  0  0  0  0  0  0  0
    0.8077   -2.2119   -3.6273 H   0  0  0  0  0  0  0  0  0  0  0  0
   -0.6914   -1.2550   -3.6661 H   0  0  0  0  0  0  0  0  0  0  0  0
    1.3553    1.2613   -5.9589 H   0  0  0  0  0  0  0  0  0  0  0  0
  1  2  1  0  0  0  0
  1 12  1  0  0  0  0
  1 21  1  0  0  0  0
  1 22  1  0  0  0  0
  2 23  1  0  0  0  0
  2 24  1  0  0  0  0
  3  4  1  0  0  0  0
  3 18  1  0  0  0  0
  4 25  1  0  0  0  0
  4 26  1  0  0  0  0
  4 27  1  0  0  0  0
  5 19  2  0  0  0  0
  6  7  1  0  0  0  0
  6  8  2  0  0  0  0
  6  9  1  0  0  0  0
  7 10  2  0  0  0  0
  7 11  1  0  0  0  0
  8 12  1  0  0  0  0
  8 28  1  0  0  0  0
  9 13  1  0  0  0  0
 10 14  1  0  0  0  0
 10 29  1  0  0  0  0
 11 13  1  0  0  0  0
 12 14  2  0  0  0  0
 13 30  1  0  0  0  0
 13 31  1  0  0  0  0
 14 32  1  0  0  0  0
 15  2  1  0  0  0  0
 15 16  1  0  0  0  0
 15 17  1  0  0  0  0
 15 33  1  1  0  0  0
 16 18  1  0  0  0  0
 16 34  1  0  0  0  0
 16 35  1  0  0  0  0
 17 19  1  0  0  0  0
 18 20  2  0  0  0  0
 19 20  1  0  0  0  0
 20 36  1  0  0  0  0
M  END
>  <Mol_ID>
9575

>  <Formula>
C15H16O5

>  <MolWeight>
276.28454

>  <Cat>
E2018

>  <Name>
Dihydromethysticin

>  <Synonyms>
NA

>  <Target>
P-glycoprotein, CYP3A23

>  <Form>
free base

>  <CAS>
19902-91-1

>  <URL>
https://www.selleckchem.com/products/(+)-Dihydromethysticin.html

$$$$
