Dilmapimod (SB-681323)
 OpenBabel08302521353D

 52 55  0  0  0  0  0  0  0  0999 V2000
    2.3110   -0.6500    0.0711 C   0  0  0  0  0  0  0  0  0  0  0  0
    1.1867   -1.3484    0.0223 N   0  0  0  0  0  0  0  0  0  0  0  0
    0.0166   -0.6771    0.0328 C   0  0  0  0  0  0  0  0  0  0  0  0
   -0.0498    0.7106   -0.0117 C   0  0  0  0  0  0  0  0  0  0  0  0
    1.1760    1.3713    0.1201 C   0  0  0  0  0  0  0  0  0  0  0  0
    2.3429    0.6772    0.1768 N   0  0  0  0  0  0  0  0  0  0  0  0
   -1.3566    1.3390   -0.2360 C   0  0  0  0  0  0  0  0  0  0  0  0
   -2.4764    0.6094   -0.2450 C   0  0  0  0  0  0  0  0  0  0  0  0
   -2.4488   -0.8581   -0.0491 C   0  0  0  0  0  0  0  0  0  0  0  0
   -1.1943   -1.4317    0.0531 N   0  0  0  0  0  0  0  0  0  0  0  0
   -3.5237   -1.4481    0.0382 O   0  0  0  0  0  0  0  0  0  0  0  0
    3.5189   -1.3087    0.0648 N   0  0  0  0  0  0  0  0  0  0  0  0
    3.6647   -2.5500   -0.7177 C   0  0  0  0  0  0  0  0  0  0  0  0
    4.6210   -2.3609   -1.9092 C   0  0  0  0  0  0  0  0  0  0  0  0
    4.1868   -3.6460    0.2291 C   0  0  0  0  0  0  0  0  0  0  0  0
    3.2566   -3.8586    1.2940 O   0  0  0  0  0  0  0  0  0  0  0  0
    5.9280   -1.9654   -1.4948 O   0  0  0  0  0  0  0  0  0  0  0  0
    1.3379    2.8607    0.2039 C   0  0  0  0  0  0  0  0  0  0  0  0
    2.4110    3.5696   -0.4135 C   0  0  0  0  0  0  0  0  0  0  0  0
    2.4309    4.9786   -0.3909 C   0  0  0  0  0  0  0  0  0  0  0  0
    1.4202    5.6961    0.2319 C   0  0  0  0  0  0  0  0  0  0  0  0
    0.4048    5.0388    0.8972 C   0  0  0  0  0  0  0  0  0  0  0  0
    0.3917    3.6418    0.9156 C   0  0  0  0  0  0  0  0  0  0  0  0
    3.5696    2.8771   -1.0872 C   0  0  0  0  0  0  0  0  0  0  0  0
    1.4374    7.0342    0.1995 F   0  0  0  0  0  0  0  0  0  0  0  0
   -1.0819   -2.8281    0.2885 C   0  0  0  0  0  0  0  0  0  0  0  0
   -1.5883   -3.7473   -0.6326 C   0  0  0  0  0  0  0  0  0  0  0  0
   -1.4758   -5.1201   -0.4151 C   0  0  0  0  0  0  0  0  0  0  0  0
   -0.8671   -5.5936    0.7479 C   0  0  0  0  0  0  0  0  0  0  0  0
   -0.3774   -4.6897    1.6900 C   0  0  0  0  0  0  0  0  0  0  0  0
   -0.4877   -3.3203    1.4577 C   0  0  0  0  0  0  0  0  0  0  0  0
   -0.0577   -2.4747    2.4085 F   0  0  0  0  0  0  0  0  0  0  0  0
   -2.1347   -3.3231   -1.7827 F   0  0  0  0  0  0  0  0  0  0  0  0
   -1.4241    2.4025   -0.4296 H   0  0  0  0  0  0  0  0  0  0  0  0
   -3.4550    1.0520   -0.3926 H   0  0  0  0  0  0  0  0  0  0  0  0
    4.2923   -0.6601    0.0781 H   0  0  0  0  0  0  0  0  0  0  0  0
    2.6987   -2.8821   -1.1184 H   0  0  0  0  0  0  0  0  0  0  0  0
    4.7246   -3.3024   -2.4613 H   0  0  0  0  0  0  0  0  0  0  0  0
    4.2429   -1.6078   -2.6097 H   0  0  0  0  0  0  0  0  0  0  0  0
    4.3125   -4.5948   -0.3017 H   0  0  0  0  0  0  0  0  0  0  0  0
    5.1480   -3.3676    0.6740 H   0  0  0  0  0  0  0  0  0  0  0  0
    2.9226   -2.9680    1.5245 H   0  0  0  0  0  0  0  0  0  0  0  0
    5.8973   -1.0167   -1.2859 H   0  0  0  0  0  0  0  0  0  0  0  0
    3.2347    5.5337   -0.8681 H   0  0  0  0  0  0  0  0  0  0  0  0
   -0.3700    5.6106    1.3984 H   0  0  0  0  0  0  0  0  0  0  0  0
   -0.3980    3.1622    1.4930 H   0  0  0  0  0  0  0  0  0  0  0  0
    4.1663    2.3252   -0.3550 H   0  0  0  0  0  0  0  0  0  0  0  0
    3.2210    2.2063   -1.8781 H   0  0  0  0  0  0  0  0  0  0  0  0
    4.2478    3.6009   -1.5554 H   0  0  0  0  0  0  0  0  0  0  0  0
   -1.8569   -5.8106   -1.1610 H   0  0  0  0  0  0  0  0  0  0  0  0
   -0.7743   -6.6629    0.9208 H   0  0  0  0  0  0  0  0  0  0  0  0
    0.0894   -5.0392    2.6062 H   0  0  0  0  0  0  0  0  0  0  0  0
  1  2  2  0  0  0  0
  1  6  1  0  0  0  0
  1 12  1  0  0  0  0
  2  3  1  0  0  0  0
  3  4  2  0  0  0  0
  4  5  1  0  0  0  0
  5  6  2  0  0  0  0
  5 18  1  0  0  0  0
  7  8  2  0  0  0  0
  7  4  1  0  0  0  0
  7 34  1  0  0  0  0
  8  9  1  0  0  0  0
  8 35  1  0  0  0  0
  9 10  1  0  0  0  0
  9 11  2  0  0  0  0
 10  3  1  0  0  0  0
 10 26  1  0  0  0  0
 12 13  1  0  0  0  0
 12 36  1  0  0  0  0
 13 14  1  0  0  0  0
 13 15  1  0  0  0  0
 13 37  1  0  0  0  0
 14 17  1  0  0  0  0
 14 38  1  0  0  0  0
 14 39  1  0  0  0  0
 15 16  1  0  0  0  0
 15 40  1  0  0  0  0
 15 41  1  0  0  0  0
 16 42  1  0  0  0  0
 17 43  1  0  0  0  0
 18 19  2  0  0  0  0
 18 23  1  0  0  0  0
 19 20  1  0  0  0  0
 19 24  1  0  0  0  0
 20 21  2  0  0  0  0
 20 44  1  0  0  0  0
 21 22  1  0  0  0  0
 21 25  1  0  0  0  0
 22 23  2  0  0  0  0
 22 45  1  0  0  0  0
 23 46  1  0  0  0  0
 24 47  1  0  0  0  0
 24 48  1  0  0  0  0
 24 49  1  0  0  0  0
 26 27  2  0  0  0  0
 26 31  1  0  0  0  0
 27 28  1  0  0  0  0
 27 33  1  0  0  0  0
 28 29  2  0  0  0  0
 28 50  1  0  0  0  0
 29 30  1  0  0  0  0
 29 51  1  0  0  0  0
 30 31  2  0  0  0  0
 30 52  1  0  0  0  0
 31 32  1  0  0  0  0
M  END
>  <Mol_ID>
6791

>  <Formula>
C23H19F3N4O3

>  <MolWeight>
456.4171696

>  <Cat>
E0114

>  <Name>
Dilmapimod (SB-681323)

>  <Synonyms>
GW 681323

>  <Target>
p38 MAPK

>  <Form>
Free base

>  <CAS>
444606-18-2

>  <URL>
http://www.selleckchem.com/products/dilmapimod-sb-681323.html

$$$$
