Dimethyl sulfone
 OpenBabel08302521363D

 11 10  0  0  0  0  0  0  0  0999 V2000
    1.1233   -0.0702    0.0451 S   0  0  0  0  0  0  0  0  0  0  0  0
    0.4864    0.5192    1.5947 C   0  0  0  0  0  0  0  0  0  0  0  0
    0.4863    1.1007   -1.1286 C   0  0  0  0  0  0  0  0  0  0  0  0
    0.5045   -1.3524   -0.2289 O   0  0  0  0  0  0  0  0  0  0  0  0
    2.5659    0.0725    0.0755 O   0  0  0  0  0  0  0  0  0  0  0  0
    0.8633    1.5282    1.7711 H   0  0  0  0  0  0  0  0  0  0  0  0
   -0.6044    0.5139    1.5536 H   0  0  0  0  0  0  0  0  0  0  0  0
    0.8336   -0.1522    2.3819 H   0  0  0  0  0  0  0  0  0  0  0  0
    0.8342    0.8092   -2.1218 H   0  0  0  0  0  0  0  0  0  0  0  0
   -0.6042    1.0789   -1.0938 H   0  0  0  0  0  0  0  0  0  0  0  0
    0.8632    2.0939   -0.8776 H   0  0  0  0  0  0  0  0  0  0  0  0
  1  2  1  0  0  0  0
  1  3  1  0  0  0  0
  1  4  2  0  0  0  0
  1  5  2  0  0  0  0
  2  6  1  0  0  0  0
  2  7  1  0  0  0  0
  2  8  1  0  0  0  0
  3  9  1  0  0  0  0
  3 10  1  0  0  0  0
  3 11  1  0  0  0  0
M  END
>  <Mol_ID>
7258

>  <Formula>
C2H6O2S

>  <MolWeight>
94.13284

>  <Cat>
E4272

>  <Name>
Dimethyl sulfone

>  <Synonyms>
Dimethyl sulfone

>  <Target>
Endogenous Metabolite

>  <Form>
free base

>  <CAS>
67-71-0

>  <URL>
https://www.selleckchem.com/products/dimethyl-sulfone.html

$$$$
