Dimethindene maleate
 OpenBabel08302521393D

 58 59  0  0  0  0  0  0  0  0999 V2000
    1.7439   -0.4229    0.6521 C   0  0  3  0  0  0  0  0  0  0  0  0
    1.2087    0.1286   -0.6717 C   0  0  0  0  0  0  0  0  0  0  0  0
    1.9604   -3.3171   -0.3938 C   0  0  0  0  0  0  0  0  0  0  0  0
    1.4896   -4.5359   -1.2089 C   0  0  0  0  0  0  0  0  0  0  0  0
    0.1704   -4.4392   -1.8645 N   0  0  0  0  0  0  0  0  0  0  0  0
    0.1000   -3.3421   -2.8273 C   0  0  0  0  0  0  0  0  0  0  0  0
   -0.1294   -5.7154   -2.5216 C   0  0  0  0  0  0  0  0  0  0  0  0
    0.9285   -1.5907    1.1868 C   0  0  0  0  0  0  0  0  0  0  0  0
   -0.0289   -1.6597    2.3150 C   0  0  0  0  0  0  0  0  0  0  0  0
    1.0526   -2.8546    0.7203 C   0  0  0  0  0  0  0  0  0  0  0  0
   -0.3733   -3.0025    2.5223 C   0  0  0  0  0  0  0  0  0  0  0  0
   -0.6156   -0.7106    3.1534 C   0  0  0  0  0  0  0  0  0  0  0  0
    0.2421   -3.8648    1.4776 C   0  0  0  0  0  0  0  0  0  0  0  0
   -1.2161   -3.4380    3.5382 C   0  0  0  0  0  0  0  0  0  0  0  0
   -1.5316   -1.1254    4.1439 C   0  0  0  0  0  0  0  0  0  0  0  0
   -1.8092   -2.4806    4.3529 C   0  0  0  0  0  0  0  0  0  0  0  0
    2.1699    0.6139    1.6829 C   0  0  0  0  0  0  0  0  0  0  0  0
    3.3627    0.3833    2.3766 C   0  0  0  0  0  0  0  0  0  0  0  0
    1.3656    1.6708    1.9630 N   0  0  0  0  0  0  0  0  0  0  0  0
    3.6955    1.1914    3.4545 C   0  0  0  0  0  0  0  0  0  0  0  0
    1.7342    2.4587    3.0044 C   0  0  0  0  0  0  0  0  0  0  0  0
    2.8535    2.2380    3.7931 C   0  0  0  0  0  0  0  0  0  0  0  0
   -1.4583    1.8280   -0.3808 C   0  0  0  0  0  0  0  0  0  0  0  0
   -2.0248    0.7391    0.1615 C   0  0  0  0  0  0  0  0  0  0  0  0
   -1.3253    2.3653   -1.7460 C   0  0  0  0  0  0  0  0  0  0  0  0
   -2.7503   -0.4106   -0.3934 C   0  0  0  0  0  0  0  0  0  0  0  0
   -2.0031    1.7326   -2.7124 O   0  0  0  0  0  0  0  0  0  0  0  0
   -0.6343    3.3421   -1.9713 O   0  0  0  0  0  0  0  0  0  0  0  0
   -2.9179   -0.3687   -1.7201 O   0  0  0  0  0  0  0  0  0  0  0  0
   -3.1699   -1.3429    0.2651 O   0  0  0  0  0  0  0  0  0  0  0  0
    2.7095   -0.8523    0.3423 H   0  0  0  0  0  0  0  0  0  0  0  0
    1.7176   -0.3462   -1.5210 H   0  0  0  0  0  0  0  0  0  0  0  0
    0.1621   -0.1336   -0.8212 H   0  0  0  0  0  0  0  0  0  0  0  0
    1.3529    1.2056   -0.7898 H   0  0  0  0  0  0  0  0  0  0  0  0
    2.1616   -2.5012   -1.0946 H   0  0  0  0  0  0  0  0  0  0  0  0
    2.9312   -3.5722    0.0551 H   0  0  0  0  0  0  0  0  0  0  0  0
    2.2626   -4.7419   -1.9617 H   0  0  0  0  0  0  0  0  0  0  0  0
    1.4801   -5.3993   -0.5315 H   0  0  0  0  0  0  0  0  0  0  0  0
    0.8922   -3.3972   -3.5812 H   0  0  0  0  0  0  0  0  0  0  0  0
   -0.8665   -3.3462   -3.3466 H   0  0  0  0  0  0  0  0  0  0  0  0
    0.1577   -2.3731   -2.3221 H   0  0  0  0  0  0  0  0  0  0  0  0
    0.7060   -6.0697   -3.1372 H   0  0  0  0  0  0  0  0  0  0  0  0
   -0.3507   -6.4785   -1.7670 H   0  0  0  0  0  0  0  0  0  0  0  0
   -1.0145   -5.6430   -3.1630 H   0  0  0  0  0  0  0  0  0  0  0  0
   -0.4315    0.3454    3.0352 H   0  0  0  0  0  0  0  0  0  0  0  0
    0.8664   -4.6463    1.9166 H   0  0  0  0  0  0  0  0  0  0  0  0
   -0.5429   -4.2922    0.8474 H   0  0  0  0  0  0  0  0  0  0  0  0
   -1.4336   -4.4939    3.6745 H   0  0  0  0  0  0  0  0  0  0  0  0
   -2.0404   -0.3841    4.7576 H   0  0  0  0  0  0  0  0  0  0  0  0
   -2.4995   -2.7880    5.1375 H   0  0  0  0  0  0  0  0  0  0  0  0
    4.0131   -0.4410    2.0991 H   0  0  0  0  0  0  0  0  0  0  0  0
    4.5917    0.9854    4.0305 H   0  0  0  0  0  0  0  0  0  0  0  0
    1.0729    3.2950    3.2138 H   0  0  0  0  0  0  0  0  0  0  0  0
    3.0660    2.8642    4.6517 H   0  0  0  0  0  0  0  0  0  0  0  0
   -0.8815    2.4486    0.3089 H   0  0  0  0  0  0  0  0  0  0  0  0
   -1.8761    0.6100    1.2297 H   0  0  0  0  0  0  0  0  0  0  0  0
   -2.4666    0.9203   -2.4123 H   0  0  0  0  0  0  0  0  0  0  0  0
   -3.3722   -1.2289   -1.8867 H   0  0  0  0  0  0  0  0  0  0  0  0
  1  2  1  0  0  0  0
  1  8  1  0  0  0  0
  1 17  1  0  0  0  0
  1 31  1  0  0  0  0
  2 32  1  0  0  0  0
  2 33  1  0  0  0  0
  2 34  1  0  0  0  0
  3  4  1  0  0  0  0
  3 10  1  0  0  0  0
  3 35  1  0  0  0  0
  3 36  1  0  0  0  0
  4  5  1  0  0  0  0
  4 37  1  0  0  0  0
  4 38  1  0  0  0  0
  5  6  1  0  0  0  0
  5  7  1  0  0  0  0
  6 39  1  0  0  0  0
  6 40  1  0  0  0  0
  6 41  1  0  0  0  0
  7 42  1  0  0  0  0
  7 43  1  0  0  0  0
  7 44  1  0  0  0  0
  8  9  1  0  0  0  0
  8 10  2  0  0  0  0
  9 11  2  0  0  0  0
  9 12  1  0  0  0  0
 10 13  1  0  0  0  0
 11 13  1  0  0  0  0
 11 14  1  0  0  0  0
 12 15  2  0  0  0  0
 12 45  1  0  0  0  0
 13 46  1  0  0  0  0
 13 47  1  0  0  0  0
 14 16  2  0  0  0  0
 14 48  1  0  0  0  0
 15 16  1  0  0  0  0
 15 49  1  0  0  0  0
 16 50  1  0  0  0  0
 17 18  2  0  0  0  0
 17 19  1  0  0  0  0
 18 20  1  0  0  0  0
 18 51  1  0  0  0  0
 19 21  2  0  0  0  0
 20 22  2  0  0  0  0
 20 52  1  0  0  0  0
 21 22  1  0  0  0  0
 21 53  1  0  0  0  0
 22 54  1  0  0  0  0
 23 24  2  0  0  0  0
 23 25  1  0  0  0  0
 23 55  1  0  0  0  0
 24 26  1  0  0  0  0
 24 56  1  0  0  0  0
 25 27  1  0  0  0  0
 25 28  2  0  0  0  0
 26 29  1  0  0  0  0
 26 30  2  0  0  0  0
 27 57  1  0  0  0  0
 29 58  1  0  0  0  0
M  END
>  <Mol_ID>
7983

>  <Formula>
C24H28N2O4

>  <MolWeight>
408.49012

>  <Cat>
E1796

>  <Name>
Dimethindene maleate

>  <Target>
Histamine Receptor

>  <Form>
maleate

>  <CAS>
3614-69-5

>  <URL>
https://www.selleckchem.com/products/dimethindene-maleate

$$$$
