Dimethylamine hydrochloride
 OpenBabel08302520383D

 10  9  0  0  0  0  0  0  0  0999 V2000
    0.9331   -0.0734   -0.0224 N   0  0  0  0  0  0  0  0  0  0  0  0
    0.4565    1.2858   -0.2407 C   0  0  0  0  0  0  0  0  0  0  0  0
    0.4565   -0.9638   -1.0722 C   0  0  0  0  0  0  0  0  0  0  0  0
    1.9524   -0.0748   -0.0187 H   0  0  0  0  0  0  0  0  0  0  0  0
    0.8172    1.6892   -1.1926 H   0  0  0  0  0  0  0  0  0  0  0  0
   -0.6374    1.3285   -0.2250 H   0  0  0  0  0  0  0  0  0  0  0  0
    0.8231    1.9343    0.5609 H   0  0  0  0  0  0  0  0  0  0  0  0
    0.8172   -0.6512   -2.0576 H   0  0  0  0  0  0  0  0  0  0  0  0
    0.8231   -1.9778   -0.8850 H   0  0  0  0  0  0  0  0  0  0  0  0
   -0.6374   -1.0066   -1.0880 H   0  0  0  0  0  0  0  0  0  0  0  0
  1  2  1  0  0  0  0
  1  3  1  0  0  0  0
  1  4  1  0  0  0  0
  2  5  1  0  0  0  0
  2  6  1  0  0  0  0
  2  7  1  0  0  0  0
  3  8  1  0  0  0  0
  3  9  1  0  0  0  0
  3 10  1  0  0  0  0
M  END
>  <Mol_ID>
3484

>  <Formula>
C2H8ClN

>  <MolWeight>
81.54462

>  <Cat>
S6197

>  <Name>
Dimethylamine hydrochloride

>  <Synonyms>
N/A

>  <Target>
Others

>  <Form>
hydrochloride

>  <CAS>
506-59-2

>  <URL>
http://www.selleck.cn/products/dimethylamine-hydrochloride.html

$$$$
