Di(N-succinimidyl) adipate
 OpenBabel08302521323D

 40 41  0  0  0  0  0  0  0  0999 V2000
    1.0809    0.1651   -0.1016 C   0  0  0  0  0  0  0  0  0  0  0  0
    0.3764   -0.9770   -0.7973 C   0  0  0  0  0  0  0  0  0  0  0  0
   -0.4855   -1.8116    0.1326 C   0  0  0  0  0  0  0  0  0  0  0  0
   -1.6732   -1.0648    0.7357 C   0  0  0  0  0  0  0  0  0  0  0  0
   -2.6018   -0.4406   -0.2911 C   0  0  0  0  0  0  0  0  0  0  0  0
   -3.3092   -1.4670   -1.1460 C   0  0  0  0  0  0  0  0  0  0  0  0
    0.6313    1.2868    0.0685 O   0  0  0  0  0  0  0  0  0  0  0  0
    2.3379   -0.2472    0.2449 O   0  0  0  0  0  0  0  0  0  0  0  0
   -2.8969   -1.9734   -2.1796 O   0  0  0  0  0  0  0  0  0  0  0  0
   -4.5405   -1.6997   -0.5990 O   0  0  0  0  0  0  0  0  0  0  0  0
   -5.5844   -1.5201   -1.5089 N   0  0  0  0  0  0  0  0  0  0  0  0
   -5.6638   -0.3987   -2.2758 C   0  0  0  0  0  0  0  0  0  0  0  0
   -7.0478   -0.3293   -2.8427 C   0  0  0  0  0  0  0  0  0  0  0  0
   -7.7949   -1.4689   -2.1633 C   0  0  0  0  0  0  0  0  0  0  0  0
   -6.7907   -2.0656   -1.2172 C   0  0  0  0  0  0  0  0  0  0  0  0
   -7.0768   -2.8436   -0.3163 O   0  0  0  0  0  0  0  0  0  0  0  0
   -4.8237    0.4743   -2.4281 O   0  0  0  0  0  0  0  0  0  0  0  0
    3.3176    0.6945   -0.0791 N   0  0  0  0  0  0  0  0  0  0  0  0
    3.4716    1.0810   -1.3747 C   0  0  0  0  0  0  0  0  0  0  0  0
    4.8219    1.7153   -1.5066 C   0  0  0  0  0  0  0  0  0  0  0  0
    5.4428    1.5815   -0.1225 C   0  0  0  0  0  0  0  0  0  0  0  0
    4.4621    0.7341    0.6433 C   0  0  0  0  0  0  0  0  0  0  0  0
    4.7222    0.1612    1.6903 O   0  0  0  0  0  0  0  0  0  0  0  0
    2.7218    0.8676   -2.3150 O   0  0  0  0  0  0  0  0  0  0  0  0
   -0.1797   -0.5708   -1.6481 H   0  0  0  0  0  0  0  0  0  0  0  0
    1.1435   -1.6214   -1.2465 H   0  0  0  0  0  0  0  0  0  0  0  0
   -0.8522   -2.6818   -0.4245 H   0  0  0  0  0  0  0  0  0  0  0  0
    0.1287   -2.2053    0.9510 H   0  0  0  0  0  0  0  0  0  0  0  0
   -2.2398   -1.7633    1.3636 H   0  0  0  0  0  0  0  0  0  0  0  0
   -1.3072   -0.2759    1.4038 H   0  0  0  0  0  0  0  0  0  0  0  0
   -3.3650    0.1488    0.2349 H   0  0  0  0  0  0  0  0  0  0  0  0
   -2.0999    0.2778   -0.9463 H   0  0  0  0  0  0  0  0  0  0  0  0
   -7.0273   -0.4363   -3.9299 H   0  0  0  0  0  0  0  0  0  0  0  0
   -7.4832    0.6387   -2.5734 H   0  0  0  0  0  0  0  0  0  0  0  0
   -8.1280   -2.2216   -2.8814 H   0  0  0  0  0  0  0  0  0  0  0  0
   -8.6530   -1.0862   -1.6012 H   0  0  0  0  0  0  0  0  0  0  0  0
    4.7394    2.7554   -1.8288 H   0  0  0  0  0  0  0  0  0  0  0  0
    5.3935    1.1425   -2.2447 H   0  0  0  0  0  0  0  0  0  0  0  0
    5.5638    2.5526    0.3637 H   0  0  0  0  0  0  0  0  0  0  0  0
    6.4103    1.0733   -0.1808 H   0  0  0  0  0  0  0  0  0  0  0  0
  1  2  1  0  0  0  0
  1  7  2  0  0  0  0
  1  8  1  0  0  0  0
  2  3  1  0  0  0  0
  2 25  1  0  0  0  0
  2 26  1  0  0  0  0
  3  4  1  0  0  0  0
  3 27  1  0  0  0  0
  3 28  1  0  0  0  0
  4  5  1  0  0  0  0
  4 29  1  0  0  0  0
  4 30  1  0  0  0  0
  5  6  1  0  0  0  0
  5 31  1  0  0  0  0
  5 32  1  0  0  0  0
  6  9  2  0  0  0  0
  6 10  1  0  0  0  0
  8 18  1  0  0  0  0
 10 11  1  0  0  0  0
 11 12  1  0  0  0  0
 11 15  1  0  0  0  0
 12 13  1  0  0  0  0
 12 17  2  0  0  0  0
 13 14  1  0  0  0  0
 13 33  1  0  0  0  0
 13 34  1  0  0  0  0
 14 15  1  0  0  0  0
 14 35  1  0  0  0  0
 14 36  1  0  0  0  0
 15 16  2  0  0  0  0
 18 19  1  0  0  0  0
 18 22  1  0  0  0  0
 19 20  1  0  0  0  0
 19 24  2  0  0  0  0
 20 21  1  0  0  0  0
 20 37  1  0  0  0  0
 20 38  1  0  0  0  0
 21 22  1  0  0  0  0
 21 39  1  0  0  0  0
 21 40  1  0  0  0  0
 22 23  2  0  0  0  0
M  END
>  <Mol_ID>
6200

>  <Formula>
C14H16N2O8

>  <MolWeight>
340.28544

>  <Cat>
S1664

>  <Name>
Di(N-succinimidyl) adipate

>  <Synonyms>
DSAP

>  <Target>
PROTAC Linker

>  <Form>
free base

>  <CAS>
59156-70-6

>  <URL>
http://www.selleckchem.com/products/di-n-succinimidyl-adipate.html

$$$$
