Diphenylpyraline hydrochloride
 OpenBabel08302520323D

 44 46  0  0  0  0  0  0  0  0999 V2000
    1.2280    0.2454   -0.0647 C   0  0  0  0  0  0  0  0  0  0  0  0
    1.1797   -0.5286    1.2651 C   0  0  0  0  0  0  0  0  0  0  0  0
    1.4618    1.7571    0.0269 C   0  0  0  0  0  0  0  0  0  0  0  0
    0.3419   -0.0477   -1.1560 O   0  0  0  0  0  0  0  0  0  0  0  0
    0.1250   -0.4358    2.1862 C   0  0  0  0  0  0  0  0  0  0  0  0
    2.3083   -1.2781    1.6663 C   0  0  0  0  0  0  0  0  0  0  0  0
    2.2061    2.3823   -0.9945 C   0  0  0  0  0  0  0  0  0  0  0  0
    0.9738    2.5648    1.0646 C   0  0  0  0  0  0  0  0  0  0  0  0
   -1.0103   -0.4346   -0.9509 C   0  0  0  0  0  0  0  0  0  0  0  0
    0.2083   -1.0057    3.4602 C   0  0  0  0  0  0  0  0  0  0  0  0
    2.3923   -1.8690    2.9352 C   0  0  0  0  0  0  0  0  0  0  0  0
    2.4719    3.7530   -0.9639 C   0  0  0  0  0  0  0  0  0  0  0  0
    1.2328    3.9386    1.0913 C   0  0  0  0  0  0  0  0  0  0  0  0
   -1.5642   -0.9068   -2.3046 C   0  0  0  0  0  0  0  0  0  0  0  0
   -1.9283    0.6768   -0.4517 C   0  0  0  0  0  0  0  0  0  0  0  0
    1.3464   -1.7075    3.8406 C   0  0  0  0  0  0  0  0  0  0  0  0
    1.9839    4.5309    0.0807 C   0  0  0  0  0  0  0  0  0  0  0  0
   -1.7831    0.2431   -3.2988 C   0  0  0  0  0  0  0  0  0  0  0  0
   -2.0592    1.8176   -1.4484 C   0  0  0  0  0  0  0  0  0  0  0  0
   -2.5410    1.3830   -2.7620 N   0  0  0  0  0  0  0  0  0  0  0  0
   -2.4480    2.5222   -3.6871 C   0  0  0  0  0  0  0  0  0  0  0  0
    2.1802   -0.1035   -0.4919 H   0  0  0  0  0  0  0  0  0  0  0  0
   -0.7724    0.1255    1.9650 H   0  0  0  0  0  0  0  0  0  0  0  0
    3.1604   -1.3882    0.9965 H   0  0  0  0  0  0  0  0  0  0  0  0
    2.5899    1.7918   -1.8255 H   0  0  0  0  0  0  0  0  0  0  0  0
    0.3892    2.1507    1.8780 H   0  0  0  0  0  0  0  0  0  0  0  0
   -1.0281   -1.2906   -0.2690 H   0  0  0  0  0  0  0  0  0  0  0  0
   -0.6074   -0.8750    4.1644 H   0  0  0  0  0  0  0  0  0  0  0  0
    3.2826   -2.4082    3.2255 H   0  0  0  0  0  0  0  0  0  0  0  0
    3.0605    4.2104   -1.7541 H   0  0  0  0  0  0  0  0  0  0  0  0
    0.8482    4.5442    1.9080 H   0  0  0  0  0  0  0  0  0  0  0  0
   -2.5148   -1.4305   -2.1439 H   0  0  0  0  0  0  0  0  0  0  0  0
   -0.8716   -1.6239   -2.7631 H   0  0  0  0  0  0  0  0  0  0  0  0
   -2.9196    0.2521   -0.2426 H   0  0  0  0  0  0  0  0  0  0  0  0
   -1.5710    1.1164    0.4764 H   0  0  0  0  0  0  0  0  0  0  0  0
    1.4213   -2.1250    4.8415 H   0  0  0  0  0  0  0  0  0  0  0  0
    2.1874    5.5977    0.1072 H   0  0  0  0  0  0  0  0  0  0  0  0
   -2.3484   -0.1620   -4.1500 H   0  0  0  0  0  0  0  0  0  0  0  0
   -0.8115    0.5665   -3.6903 H   0  0  0  0  0  0  0  0  0  0  0  0
   -1.0971    2.3366   -1.5282 H   0  0  0  0  0  0  0  0  0  0  0  0
   -2.7778    2.5370   -1.0338 H   0  0  0  0  0  0  0  0  0  0  0  0
   -3.0981    3.3402   -3.3563 H   0  0  0  0  0  0  0  0  0  0  0  0
   -1.4232    2.9114   -3.7523 H   0  0  0  0  0  0  0  0  0  0  0  0
   -2.7681    2.2432   -4.6961 H   0  0  0  0  0  0  0  0  0  0  0  0
  1  2  1  0  0  0  0
  1  3  1  0  0  0  0
  1  4  1  0  0  0  0
  1 22  1  0  0  0  0
  2  5  2  0  0  0  0
  2  6  1  0  0  0  0
  3  7  2  0  0  0  0
  3  8  1  0  0  0  0
  4  9  1  0  0  0  0
  5 10  1  0  0  0  0
  5 23  1  0  0  0  0
  6 11  2  0  0  0  0
  6 24  1  0  0  0  0
  7 12  1  0  0  0  0
  7 25  1  0  0  0  0
  8 13  2  0  0  0  0
  8 26  1  0  0  0  0
  9 14  1  0  0  0  0
  9 15  1  0  0  0  0
  9 27  1  0  0  0  0
 10 16  2  0  0  0  0
 10 28  1  0  0  0  0
 11 16  1  0  0  0  0
 11 29  1  0  0  0  0
 12 17  2  0  0  0  0
 12 30  1  0  0  0  0
 13 17  1  0  0  0  0
 13 31  1  0  0  0  0
 14 18  1  0  0  0  0
 14 32  1  0  0  0  0
 14 33  1  0  0  0  0
 15 19  1  0  0  0  0
 15 34  1  0  0  0  0
 15 35  1  0  0  0  0
 16 36  1  0  0  0  0
 17 37  1  0  0  0  0
 18 20  1  0  0  0  0
 18 38  1  0  0  0  0
 18 39  1  0  0  0  0
 19 20  1  0  0  0  0
 19 40  1  0  0  0  0
 19 41  1  0  0  0  0
 20 21  1  0  0  0  0
 21 42  1  0  0  0  0
 21 43  1  0  0  0  0
 21 44  1  0  0  0  0
M  END
>  <Mol_ID>
3352

>  <Formula>
C19H24ClNO

>  <MolWeight>
317.85296

>  <Cat>
S5656

>  <Name>
Diphenylpyraline hydrochloride

>  <Synonyms>
N/A

>  <Target>
Dyes,Histamine Receptor

>  <Form>
hydrochloride

>  <CAS>
132-18-3

>  <URL>
http://www.selleckchem.com/products/diphenylpyraline-hydrochloride.html

$$$$
