Diphenidol hydrochloride.cdx
 OpenBabel08302522063D

 50 52  0  0  0  0  0  0  0  0999 V2000
    1.3239   -0.5726    0.0358 C   0  0  0  0  0  0  0  0  0  0  0  0
    0.4210   -1.6237   -0.0786 C   0  0  0  0  0  0  0  0  0  0  0  0
   -0.9347   -1.3536   -0.2406 C   0  0  0  0  0  0  0  0  0  0  0  0
   -1.4012   -0.0384   -0.2448 C   0  0  0  0  0  0  0  0  0  0  0  0
   -0.5082    1.0391   -0.0917 C   0  0  0  0  0  0  0  0  0  0  0  0
    0.8673    0.7438   -0.0020 C   0  0  0  0  0  0  0  0  0  0  0  0
   -1.0034    2.5026    0.0525 C   0  0  0  0  0  0  0  0  0  0  0  0
   -0.4006    3.0108    1.4112 C   0  0  0  0  0  0  0  0  0  0  0  0
   -0.7468    3.2861   -1.2417 C   0  0  0  0  0  0  0  0  0  0  0  0
   -2.4259    2.4746    0.2077 O   0  0  0  0  0  0  0  0  0  0  0  0
   -1.3863    2.8817   -2.4401 C   0  0  0  0  0  0  0  0  0  0  0  0
   -1.2147    3.5793   -3.6417 C   0  0  0  0  0  0  0  0  0  0  0  0
   -0.4122    4.7104   -3.6725 C   0  0  0  0  0  0  0  0  0  0  0  0
    0.2419    5.1152   -2.5132 C   0  0  0  0  0  0  0  0  0  0  0  0
    0.0871    4.4044   -1.3245 C   0  0  0  0  0  0  0  0  0  0  0  0
   -0.7192    4.3589    2.0731 C   0  0  0  0  0  0  0  0  0  0  0  0
   -2.1413    4.8748    2.3208 C   0  0  0  0  0  0  0  0  0  0  0  0
   -3.0151    4.2081    3.3009 N   0  0  0  0  0  0  0  0  0  0  0  0
   -4.2622    4.9929    3.4306 C   0  0  0  0  0  0  0  0  0  0  0  0
   -5.1611    4.4479    4.5393 C   0  0  0  0  0  0  0  0  0  0  0  0
   -5.5011    2.9837    4.3018 C   0  0  0  0  0  0  0  0  0  0  0  0
   -4.2242    2.1827    4.0948 C   0  0  0  0  0  0  0  0  0  0  0  0
   -3.3507    2.8100    3.0044 C   0  0  0  0  0  0  0  0  0  0  0  0
    2.3827   -0.7731    0.1706 H   0  0  0  0  0  0  0  0  0  0  0  0
    0.7727   -2.6487   -0.0372 H   0  0  0  0  0  0  0  0  0  0  0  0
   -1.6423   -2.1742   -0.3416 H   0  0  0  0  0  0  0  0  0  0  0  0
   -2.4673    0.1439   -0.3439 H   0  0  0  0  0  0  0  0  0  0  0  0
    1.6011    1.5412    0.0798 H   0  0  0  0  0  0  0  0  0  0  0  0
   -0.6140    2.2457    2.1673 H   0  0  0  0  0  0  0  0  0  0  0  0
    0.6941    3.0079    1.3306 H   0  0  0  0  0  0  0  0  0  0  0  0
   -2.7207    3.3971    0.2313 H   0  0  0  0  0  0  0  0  0  0  0  0
   -2.0256    1.9992   -2.4468 H   0  0  0  0  0  0  0  0  0  0  0  0
   -1.7129    3.2396   -4.5473 H   0  0  0  0  0  0  0  0  0  0  0  0
   -0.2838    5.2679   -4.5982 H   0  0  0  0  0  0  0  0  0  0  0  0
    0.8874    5.9946   -2.5383 H   0  0  0  0  0  0  0  0  0  0  0  0
    0.6455    4.7476   -0.4514 H   0  0  0  0  0  0  0  0  0  0  0  0
   -0.2077    4.3453    3.0480 H   0  0  0  0  0  0  0  0  0  0  0  0
   -0.1950    5.1414    1.5116 H   0  0  0  0  0  0  0  0  0  0  0  0
   -1.9698    5.8815    2.7359 H   0  0  0  0  0  0  0  0  0  0  0  0
   -2.6507    5.0486    1.3683 H   0  0  0  0  0  0  0  0  0  0  0  0
   -4.8134    4.9924    2.4783 H   0  0  0  0  0  0  0  0  0  0  0  0
   -4.0306    6.0379    3.6664 H   0  0  0  0  0  0  0  0  0  0  0  0
   -6.0827    5.0376    4.5929 H   0  0  0  0  0  0  0  0  0  0  0  0
   -4.6521    4.5548    5.5053 H   0  0  0  0  0  0  0  0  0  0  0  0
   -6.0674    2.5818    5.1485 H   0  0  0  0  0  0  0  0  0  0  0  0
   -6.1385    2.8922    3.4131 H   0  0  0  0  0  0  0  0  0  0  0  0
   -3.6618    2.1300    5.0353 H   0  0  0  0  0  0  0  0  0  0  0  0
   -4.4766    1.1534    3.8148 H   0  0  0  0  0  0  0  0  0  0  0  0
   -2.4543    2.1956    2.9480 H   0  0  0  0  0  0  0  0  0  0  0  0
   -3.8903    2.7361    2.0550 H   0  0  0  0  0  0  0  0  0  0  0  0
  1  2  2  0  0  0  0
  1 24  1  0  0  0  0
  2  3  1  0  0  0  0
  2 25  1  0  0  0  0
  3  4  2  0  0  0  0
  3 26  1  0  0  0  0
  4  5  1  0  0  0  0
  4 27  1  0  0  0  0
  5  6  2  0  0  0  0
  5  7  1  0  0  0  0
  6  1  1  0  0  0  0
  6 28  1  0  0  0  0
  7  8  1  0  0  0  0
  7  9  1  0  0  0  0
  7 10  1  0  0  0  0
  8 16  1  0  0  0  0
  8 29  1  0  0  0  0
  8 30  1  0  0  0  0
  9 11  2  0  0  0  0
 10 31  1  0  0  0  0
 11 12  1  0  0  0  0
 11 32  1  0  0  0  0
 12 13  2  0  0  0  0
 12 33  1  0  0  0  0
 13 14  1  0  0  0  0
 13 34  1  0  0  0  0
 14 15  2  0  0  0  0
 14 35  1  0  0  0  0
 15  9  1  0  0  0  0
 15 36  1  0  0  0  0
 16 17  1  0  0  0  0
 16 37  1  0  0  0  0
 16 38  1  0  0  0  0
 17 18  1  0  0  0  0
 17 39  1  0  0  0  0
 17 40  1  0  0  0  0
 18 19  1  0  0  0  0
 19 20  1  0  0  0  0
 19 41  1  0  0  0  0
 19 42  1  0  0  0  0
 20 21  1  0  0  0  0
 20 43  1  0  0  0  0
 20 44  1  0  0  0  0
 21 22  1  0  0  0  0
 21 45  1  0  0  0  0
 21 46  1  0  0  0  0
 22 23  1  0  0  0  0
 22 47  1  0  0  0  0
 22 48  1  0  0  0  0
 23 18  1  0  0  0  0
 23 49  1  0  0  0  0
 23 50  1  0  0  0  0
M  END
>  <Mol_ID>
1431

>  <Formula>
C21H28ClNO

>  <MolWeight>
345.90612

>  <Cat>
S4292

>  <Name>
Diphenidol HCl

>  <Synonyms>
Diphenidol hydrochloride

>  <Target>
AChR

>  <Form>
Hydrochloride

>  <CAS>
3254-89-5

>  <URL>
http://selleckchem.com/products/diphenidol-hcl.html

$$$$
