Diphemanil methylsulfate.cdx
 OpenBabel08302522033D

 54 55  0  0  0  0  0  0  0  0999 V2000
    0.6119   -0.3026    0.4771 C   0  0  0  0  0  0  0  0  0  0  0  0
   -0.1029   -1.3564   -0.0152 C   0  0  0  0  0  0  0  0  0  0  0  0
   -0.2137    1.0074    0.4410 C   0  0  0  0  0  0  0  0  0  0  0  0
    2.0315   -0.5724    1.0407 C   0  0  0  0  0  0  0  0  0  0  0  0
   -1.6161   -1.3343   -0.1891 C   0  0  0  0  0  0  0  0  0  0  0  0
    0.3403   -2.7799   -0.3009 C   0  0  0  0  0  0  0  0  0  0  0  0
   -1.0443    1.4567    1.4821 C   0  0  0  0  0  0  0  0  0  0  0  0
   -0.4447    1.6186   -0.8242 C   0  0  0  0  0  0  0  0  0  0  0  0
    2.9768   -1.3978    0.3842 C   0  0  0  0  0  0  0  0  0  0  0  0
    2.4876   -0.0710    2.2728 C   0  0  0  0  0  0  0  0  0  0  0  0
   -2.1585   -2.1171    1.0086 C   0  0  0  0  0  0  0  0  0  0  0  0
   -0.1657   -3.6989    0.7966 C   0  0  0  0  0  0  0  0  0  0  0  0
   -2.0380    2.4475    1.2604 C   0  0  0  0  0  0  0  0  0  0  0  0
   -1.3949    2.6308   -1.0406 C   0  0  0  0  0  0  0  0  0  0  0  0
    4.1979   -1.8274    0.9529 C   0  0  0  0  0  0  0  0  0  0  0  0
    3.7502   -0.4315    2.8151 C   0  0  0  0  0  0  0  0  0  0  0  0
   -1.7000   -3.5971    0.9780 N   0  3  0  0  0  0  0  0  0  0  0  0
   -2.2073    3.0341    0.0031 C   0  0  0  0  0  0  0  0  0  0  0  0
    4.5859   -1.3438    2.1881 C   0  0  0  0  0  0  0  0  0  0  0  0
   -2.4249   -4.3329   -0.1371 C   0  0  0  0  0  0  0  0  0  0  0  0
   -2.0417   -4.2397    2.3116 C   0  0  0  0  0  0  0  0  0  0  0  0
    3.1267    1.4434   -1.8031 S   0  0  0  0  0  0  0  0  0  0  0  0
    2.2933    2.0168   -0.5336 O   0  0  0  0  0  0  0  0  0  0  0  0
    2.1708    0.5394   -2.4564 O   0  0  0  0  0  0  0  0  0  0  0  0
    4.2718    0.7642   -1.2243 O   0  0  0  0  0  0  0  0  0  0  0  0
    3.4537    2.6418   -2.5591 O   0  5  0  0  0  0  0  0  0  0  0  0
    2.9182    2.7455    0.4893 C   0  0  0  0  0  0  0  0  0  0  0  0
   -2.0875   -0.3533   -0.1896 H   0  0  0  0  0  0  0  0  0  0  0  0
   -1.9001   -1.7681   -1.1527 H   0  0  0  0  0  0  0  0  0  0  0  0
   -0.0512   -3.0807   -1.2812 H   0  0  0  0  0  0  0  0  0  0  0  0
    1.4035   -2.9487   -0.4038 H   0  0  0  0  0  0  0  0  0  0  0  0
   -0.9926    0.9926    2.4579 H   0  0  0  0  0  0  0  0  0  0  0  0
    0.1038    1.2763   -1.6985 H   0  0  0  0  0  0  0  0  0  0  0  0
    2.8253   -1.6798   -0.6566 H   0  0  0  0  0  0  0  0  0  0  0  0
    1.8950    0.6589    2.8169 H   0  0  0  0  0  0  0  0  0  0  0  0
   -1.7926   -1.6916    1.9533 H   0  0  0  0  0  0  0  0  0  0  0  0
   -3.2531   -2.1103    1.0273 H   0  0  0  0  0  0  0  0  0  0  0  0
    0.0686   -4.7454    0.5722 H   0  0  0  0  0  0  0  0  0  0  0  0
    0.2999   -3.4315    1.7534 H   0  0  0  0  0  0  0  0  0  0  0  0
   -2.7204    2.7305    2.0568 H   0  0  0  0  0  0  0  0  0  0  0  0
   -1.4994    3.0649   -2.0344 H   0  0  0  0  0  0  0  0  0  0  0  0
    4.8561   -2.4905    0.3933 H   0  0  0  0  0  0  0  0  0  0  0  0
    4.0975    0.0145    3.7543 H   0  0  0  0  0  0  0  0  0  0  0  0
   -2.9777    3.7822   -0.1665 H   0  0  0  0  0  0  0  0  0  0  0  0
    5.5495   -1.6300    2.6131 H   0  0  0  0  0  0  0  0  0  0  0  0
   -2.1379   -5.3867   -0.1012 H   0  0  0  0  0  0  0  0  0  0  0  0
   -3.5006   -4.2226    0.0271 H   0  0  0  0  0  0  0  0  0  0  0  0
   -2.1480   -3.9063   -1.1026 H   0  0  0  0  0  0  0  0  0  0  0  0
   -1.4735   -3.7353    3.0997 H   0  0  0  0  0  0  0  0  0  0  0  0
   -3.1147   -4.1266    2.4857 H   0  0  0  0  0  0  0  0  0  0  0  0
   -1.7635   -5.2965    2.2640 H   0  0  0  0  0  0  0  0  0  0  0  0
    3.8414    2.2729    0.8294 H   0  0  0  0  0  0  0  0  0  0  0  0
    3.0932    3.7727    0.1684 H   0  0  0  0  0  0  0  0  0  0  0  0
    2.2313    2.7830    1.3457 H   0  0  0  0  0  0  0  0  0  0  0  0
  1  2  2  0  0  0  0
  1  3  1  0  0  0  0
  1  4  1  0  0  0  0
  2  6  1  0  0  0  0
  2  5  1  0  0  0  0
  3  7  2  0  0  0  0
  3  8  1  0  0  0  0
  4  9  2  0  0  0  0
  4 10  1  0  0  0  0
  5 11  1  0  0  0  0
  5 28  1  0  0  0  0
  5 29  1  0  0  0  0
  6 12  1  0  0  0  0
  6 30  1  0  0  0  0
  6 31  1  0  0  0  0
  7 13  1  0  0  0  0
  7 32  1  0  0  0  0
  8 14  2  0  0  0  0
  8 33  1  0  0  0  0
  9 15  1  0  0  0  0
  9 34  1  0  0  0  0
 10 16  2  0  0  0  0
 10 35  1  0  0  0  0
 11 17  1  0  0  0  0
 11 36  1  0  0  0  0
 11 37  1  0  0  0  0
 12 17  1  0  0  0  0
 12 38  1  0  0  0  0
 12 39  1  0  0  0  0
 13 18  2  0  0  0  0
 13 40  1  0  0  0  0
 14 18  1  0  0  0  0
 14 41  1  0  0  0  0
 15 19  2  0  0  0  0
 15 42  1  0  0  0  0
 16 19  1  0  0  0  0
 16 43  1  0  0  0  0
 17 20  1  0  0  0  0
 17 21  1  0  0  0  0
 18 44  1  0  0  0  0
 19 45  1  0  0  0  0
 20 46  1  0  0  0  0
 20 47  1  0  0  0  0
 20 48  1  0  0  0  0
 21 49  1  0  0  0  0
 21 50  1  0  0  0  0
 21 51  1  0  0  0  0
 22 23  1  0  0  0  0
 22 24  2  0  0  0  0
 22 25  2  0  0  0  0
 22 26  1  0  0  0  0
 23 27  1  0  0  0  0
 27 52  1  0  0  0  0
 27 53  1  0  0  0  0
 27 54  1  0  0  0  0
M  CHG  2  17   1  26  -1
M  END
>  <Mol_ID>
1223

>  <Formula>
C21H27NO4S

>  <MolWeight>
389.50838

>  <Cat>
S4034

>  <Name>
Diphemanil Methylsulfate

>  <Synonyms>
N/A

>  <Target>
AChR

>  <Form>
Methylsulfate

>  <CAS>
62-97-5

>  <URL>
http://selleckchem.com/products/diphemanil-methylsulfate.html

$$$$
