Diphenylterazine
 OpenBabel08302521283D

 48 52  0  0  0  0  0  0  0  0999 V2000
    0.8922    0.0471   -0.2058 O   0  0  0  0  0  0  0  0  0  0  0  0
    3.0001    1.0853    0.0005 N   0  0  0  0  0  0  0  0  0  0  0  0
    4.2723   -0.8145    0.0941 N   0  0  0  0  0  0  0  0  0  0  0  0
    5.1410    2.7782    0.0984 N   0  0  0  0  0  0  0  0  0  0  0  0
    4.2868    0.5698    0.0791 C   0  0  0  0  0  0  0  0  0  0  0  0
    3.0077   -1.1380    0.0233 C   0  0  0  0  0  0  0  0  0  0  0  0
    2.0943    0.0733   -0.0695 C   0  0  0  0  0  0  0  0  0  0  0  0
    5.3521    1.4049    0.1174 C   0  0  0  0  0  0  0  0  0  0  0  0
    2.4310   -2.5140    0.0550 C   0  0  0  0  0  0  0  0  0  0  0  0
    2.7998    2.4472   -0.0246 C   0  0  0  0  0  0  0  0  0  0  0  0
    3.8560    3.2857    0.0350 C   0  0  0  0  0  0  0  0  0  0  0  0
    6.7388    0.9243    0.1299 C   0  0  0  0  0  0  0  0  0  0  0  0
    2.0509   -2.9424    1.4511 C   0  0  0  0  0  0  0  0  0  0  0  0
    3.6671    4.7387    0.0311 C   0  0  0  0  0  0  0  0  0  0  0  0
    7.4309    0.7725   -1.0792 C   0  0  0  0  0  0  0  0  0  0  0  0
    7.3823    0.6075    1.3317 C   0  0  0  0  0  0  0  0  0  0  0  0
    0.7820   -2.6476    1.9699 C   0  0  0  0  0  0  0  0  0  0  0  0
    2.9783   -3.6064    2.2660 C   0  0  0  0  0  0  0  0  0  0  0  0
    3.4902    5.4279    1.2381 C   0  0  0  0  0  0  0  0  0  0  0  0
    3.6166    5.4459   -1.1749 C   0  0  0  0  0  0  0  0  0  0  0  0
    8.7420    0.2932   -1.0877 C   0  0  0  0  0  0  0  0  0  0  0  0
    8.6954    0.1292    1.3215 C   0  0  0  0  0  0  0  0  0  0  0  0
    0.4517   -3.0037    3.2793 C   0  0  0  0  0  0  0  0  0  0  0  0
    2.6436   -3.9665    3.5730 C   0  0  0  0  0  0  0  0  0  0  0  0
    9.3718   -0.0329    0.1123 C   0  0  0  0  0  0  0  0  0  0  0  0
    3.2635    6.8064    1.2369 C   0  0  0  0  0  0  0  0  0  0  0  0
    3.3895    6.8252   -1.1750 C   0  0  0  0  0  0  0  0  0  0  0  0
    1.3831   -3.6599    4.0814 C   0  0  0  0  0  0  0  0  0  0  0  0
    3.2107    7.5033    0.0304 C   0  0  0  0  0  0  0  0  0  0  0  0
    5.9341    3.4078    0.1327 H   0  0  0  0  0  0  0  0  0  0  0  0
    1.5572   -2.5592   -0.6052 H   0  0  0  0  0  0  0  0  0  0  0  0
    3.1659   -3.2129   -0.3616 H   0  0  0  0  0  0  0  0  0  0  0  0
    1.7705    2.7869   -0.0867 H   0  0  0  0  0  0  0  0  0  0  0  0
    6.9446    1.0163   -2.0209 H   0  0  0  0  0  0  0  0  0  0  0  0
    6.8611    0.7216    2.2792 H   0  0  0  0  0  0  0  0  0  0  0  0
    0.0407   -2.1332    1.3602 H   0  0  0  0  0  0  0  0  0  0  0  0
    3.9712   -3.8438    1.8888 H   0  0  0  0  0  0  0  0  0  0  0  0
    3.5216    4.8927    2.1851 H   0  0  0  0  0  0  0  0  0  0  0  0
    3.7462    4.9263   -2.1217 H   0  0  0  0  0  0  0  0  0  0  0  0
    9.2662    0.1642   -2.0307 H   0  0  0  0  0  0  0  0  0  0  0  0
    9.1875   -0.1258    2.2564 H   0  0  0  0  0  0  0  0  0  0  0  0
   -0.5323   -2.7646    3.6746 H   0  0  0  0  0  0  0  0  0  0  0  0
    3.3699   -4.4814    4.1966 H   0  0  0  0  0  0  0  0  0  0  0  0
   10.3882   -0.4182    0.1046 H   0  0  0  0  0  0  0  0  0  0  0  0
    3.1209    7.3348    2.1762 H   0  0  0  0  0  0  0  0  0  0  0  0
    3.3457    7.3688   -2.1153 H   0  0  0  0  0  0  0  0  0  0  0  0
    1.1279   -3.9292    5.1029 H   0  0  0  0  0  0  0  0  0  0  0  0
    3.0269    8.5751    0.0293 H   0  0  0  0  0  0  0  0  0  0  0  0
  1  7  2  0  0  0  0
  2  5  1  0  0  0  0
  2  7  1  0  0  0  0
  2 10  1  0  0  0  0
  3  5  1  0  0  0  0
  3  6  2  0  0  0  0
  4  8  1  0  0  0  0
  4 11  1  0  0  0  0
  4 30  1  0  0  0  0
  5  8  2  0  0  0  0
  6  7  1  0  0  0  0
  6  9  1  0  0  0  0
  8 12  1  0  0  0  0
  9 13  1  0  0  0  0
  9 31  1  0  0  0  0
  9 32  1  0  0  0  0
 10 11  2  0  0  0  0
 10 33  1  0  0  0  0
 11 14  1  0  0  0  0
 12 15  2  0  0  0  0
 12 16  1  0  0  0  0
 13 17  2  0  0  0  0
 13 18  1  0  0  0  0
 14 19  2  0  0  0  0
 14 20  1  0  0  0  0
 15 21  1  0  0  0  0
 15 34  1  0  0  0  0
 16 22  2  0  0  0  0
 16 35  1  0  0  0  0
 17 23  1  0  0  0  0
 17 36  1  0  0  0  0
 18 24  2  0  0  0  0
 18 37  1  0  0  0  0
 19 26  1  0  0  0  0
 19 38  1  0  0  0  0
 20 27  2  0  0  0  0
 20 39  1  0  0  0  0
 21 25  2  0  0  0  0
 21 40  1  0  0  0  0
 22 25  1  0  0  0  0
 22 41  1  0  0  0  0
 23 28  2  0  0  0  0
 23 42  1  0  0  0  0
 24 28  1  0  0  0  0
 24 43  1  0  0  0  0
 25 44  1  0  0  0  0
 26 29  2  0  0  0  0
 26 45  1  0  0  0  0
 27 29  1  0  0  0  0
 27 46  1  0  0  0  0
 28 47  1  0  0  0  0
 29 48  1  0  0  0  0
M  END
>  <Mol_ID>
5402

>  <Formula>
C25H19N3O

>  <MolWeight>
377.43786

>  <Cat>
S0866

>  <Name>
Diphenylterazine

>  <Synonyms>
DTZ

>  <Target>
Dyes

>  <Form>
Free Base

>  <CAS>
344940-63-2

>  <URL>
https://www.selleckchem.com/products/diphenylterazine.html

$$$$
