Diroximel Fumarate
 OpenBabel08302520403D

 31 31  0  0  0  0  0  0  0  0999 V2000
    0.4319    2.3324    1.3914 N   0  0  0  0  0  0  0  0  0  0  0  0
    0.3105    1.4922    2.4565 C   0  0  0  0  0  0  0  0  0  0  0  0
    1.2376    3.4012    1.6482 C   0  0  0  0  0  0  0  0  0  0  0  0
   -2.2437    0.7552   -3.0785 C   0  0  0  0  0  0  0  0  0  0  0  0
   -1.1103    0.9977   -3.7564 C   0  0  0  0  0  0  0  0  0  0  0  0
   -2.6354    1.5079   -1.8703 C   0  0  0  0  0  0  0  0  0  0  0  0
   -0.6797    0.0740   -4.8199 C   0  0  0  0  0  0  0  0  0  0  0  0
    1.7636    3.2919    3.0481 C   0  0  0  0  0  0  0  0  0  0  0  0
    1.1468    2.0136    3.5873 C   0  0  0  0  0  0  0  0  0  0  0  0
   -0.3454    0.4634    2.5007 O   0  0  0  0  0  0  0  0  0  0  0  0
    1.5161    4.3031    0.8728 O   0  0  0  0  0  0  0  0  0  0  0  0
   -3.5749    1.1781   -1.1680 O   0  0  0  0  0  0  0  0  0  0  0  0
   -1.2841   -0.9235   -5.1759 O   0  0  0  0  0  0  0  0  0  0  0  0
   -0.1259    2.0559    0.0874 C   0  0  0  0  0  0  0  0  0  0  0  0
   -1.7340    2.4796   -1.5943 O   0  0  0  0  0  0  0  0  0  0  0  0
    0.5231    0.5029   -5.2745 O   0  0  0  0  0  0  0  0  0  0  0  0
   -1.4717    2.7237   -0.1990 C   0  0  0  0  0  0  0  0  0  0  0  0
    1.1198   -0.3537   -6.2499 C   0  0  0  0  0  0  0  0  0  0  0  0
   -2.8876   -0.0854   -3.3161 H   0  0  0  0  0  0  0  0  0  0  0  0
   -0.4405    1.8138   -3.5196 H   0  0  0  0  0  0  0  0  0  0  0  0
    1.4580    4.1638    3.6331 H   0  0  0  0  0  0  0  0  0  0  0  0
    2.8551    3.2267    3.0265 H   0  0  0  0  0  0  0  0  0  0  0  0
    0.5224    2.2050    4.4624 H   0  0  0  0  0  0  0  0  0  0  0  0
    1.9187    1.2786    3.8384 H   0  0  0  0  0  0  0  0  0  0  0  0
    0.5978    2.3823   -0.6706 H   0  0  0  0  0  0  0  0  0  0  0  0
   -0.2295    0.9713   -0.0369 H   0  0  0  0  0  0  0  0  0  0  0  0
   -2.2565    2.3330    0.4587 H   0  0  0  0  0  0  0  0  0  0  0  0
   -1.4192    3.8068   -0.0512 H   0  0  0  0  0  0  0  0  0  0  0  0
    1.3444   -1.3304   -5.8104 H   0  0  0  0  0  0  0  0  0  0  0  0
    0.4686   -0.4601   -7.1231 H   0  0  0  0  0  0  0  0  0  0  0  0
    2.0593    0.1045   -6.5713 H   0  0  0  0  0  0  0  0  0  0  0  0
  2  1  1  0  0  0  0
  3  1  1  0  0  0  0
  4  6  1  0  0  0  0
  4 19  1  0  0  0  0
  5  4  2  0  0  0  0
  5 20  1  0  0  0  0
  6 15  1  0  0  0  0
  7  5  1  0  0  0  0
  8  3  1  0  0  0  0
  8 21  1  0  0  0  0
  8 22  1  0  0  0  0
  9  2  1  0  0  0  0
  9  8  1  0  0  0  0
  9 23  1  0  0  0  0
  9 24  1  0  0  0  0
 10  2  2  0  0  0  0
 11  3  2  0  0  0  0
 12  6  2  0  0  0  0
 13  7  2  0  0  0  0
 14  1  1  0  0  0  0
 14 25  1  0  0  0  0
 14 26  1  0  0  0  0
 15 17  1  0  0  0  0
 16  7  1  0  0  0  0
 17 14  1  0  0  0  0
 17 27  1  0  0  0  0
 17 28  1  0  0  0  0
 18 16  1  0  0  0  0
 18 29  1  0  0  0  0
 18 30  1  0  0  0  0
 18 31  1  0  0  0  0
M  END
>  <Mol_ID>
3741

>  <Formula>
C11H13NO6

>  <MolWeight>
255.22402

>  <Cat>
S6421

>  <Name>
Diroximel Fumarate

>  <Synonyms>
ALKS-8700

>  <Target>
Others

>  <Form>
Fumarete

>  <CAS>
1577222-14-0

>  <URL>
http://www.selleck.cn/products/diroximel-fumarete.html

$$$$
