DL-beta-Hydroxybutyric acid sodium salt
 OpenBabel08302521383D

 15 14  0  0  0  0  0  0  0  0999 V2000
    0.9222   -0.0766    0.1641 C   0  0  0  0  0  0  0  0  0  0  0  0
    0.4197   -1.0878   -0.8603 C   0  0  3  0  0  0  0  0  0  0  0  0
    0.4992    1.3395   -0.1532 C   0  0  0  0  0  0  0  0  0  0  0  0
    0.9439   -2.4913   -0.5880 C   0  0  0  0  0  0  0  0  0  0  0  0
   -1.0157   -1.0933   -0.8164 O   0  0  0  0  0  0  0  0  0  0  0  0
   -0.7430    1.4610   -0.6711 O   0  0  0  0  0  0  0  0  0  0  0  0
    1.1887    2.3129    0.1155 O   0  0  0  0  0  0  0  0  0  0  0  0
    2.0178   -0.0950    0.1830 H   0  0  0  0  0  0  0  0  0  0  0  0
    0.5477   -0.3125    1.1660 H   0  0  0  0  0  0  0  0  0  0  0  0
    0.7110   -0.7764   -1.8700 H   0  0  0  0  0  0  0  0  0  0  0  0
    0.5754   -2.8717    0.3713 H   0  0  0  0  0  0  0  0  0  0  0  0
    0.5859   -3.1837   -1.3576 H   0  0  0  0  0  0  0  0  0  0  0  0
    2.0374   -2.5166   -0.5778 H   0  0  0  0  0  0  0  0  0  0  0  0
   -1.2995   -1.7693   -0.1703 H   0  0  0  0  0  0  0  0  0  0  0  0
   -1.1789    0.5865   -0.8215 H   0  0  0  0  0  0  0  0  0  0  0  0
  1  2  1  0  0  0  0
  1  3  1  0  0  0  0
  1  8  1  0  0  0  0
  1  9  1  0  0  0  0
  2  4  1  0  0  0  0
  2  5  1  0  0  0  0
  2 10  1  0  0  0  0
  3  6  1  0  0  0  0
  3  7  2  0  0  0  0
  4 11  1  0  0  0  0
  4 12  1  0  0  0  0
  4 13  1  0  0  0  0
  5 14  1  0  0  0  0
  6 15  1  0  0  0  0
M  END
>  <Mol_ID>
7642

>  <Formula>
C4H8NaO3

>  <MolWeight>
127.09429

>  <Cat>
E4004

>  <Name>
DL-beta-Hydroxybutyric acid sodium salt

>  <Synonyms>
¦Â-Hydroxybutyric acid sodium

>  <Target>
Others

>  <Form>
sodium

>  <CAS>
150-83-4

>  <URL>
https://www.selleckchem.com/products/dl-beta-hydroxybutyric-acid-sodium-salt.html

$$$$
