DL-Menthol
 OpenBabel08302520403D

 31 31  0  0  0  0  0  0  0  0999 V2000
    1.1245    1.1523   -0.1651 C   0  0  1  0  0  0  0  0  0  0  0  0
    1.1386   -0.3039    0.3525 C   0  0  1  0  0  0  0  0  0  0  0  0
   -0.1943    1.8425    0.2325 C   0  0  0  0  0  0  0  0  0  0  0  0
    2.4023    1.9475    0.2460 C   0  0  0  0  0  0  0  0  0  0  0  0
   -0.0954   -1.0900   -0.0968 C   0  0  0  0  0  0  0  0  0  0  0  0
    2.3057   -0.9837   -0.1051 O   0  0  0  0  0  0  0  0  0  0  0  0
   -1.4201    1.0420   -0.2110 C   0  0  0  0  0  0  0  0  0  0  0  0
    2.3921    3.3793   -0.3016 C   0  0  0  0  0  0  0  0  0  0  0  0
    2.6653    1.9845    1.7549 C   0  0  0  0  0  0  0  0  0  0  0  0
   -1.3891   -0.3907    0.3271 C   0  0  1  0  0  0  0  0  0  0  0  0
   -2.6098   -1.1773   -0.1466 C   0  0  0  0  0  0  0  0  0  0  0  0
    1.1478    1.1052   -1.2641 H   0  0  0  0  0  0  0  0  0  0  0  0
    1.1662   -0.3163    1.4474 H   0  0  0  0  0  0  0  0  0  0  0  0
   -0.2591    2.8347   -0.2254 H   0  0  0  0  0  0  0  0  0  0  0  0
   -0.2339    1.9870    1.3179 H   0  0  0  0  0  0  0  0  0  0  0  0
    3.2624    1.4437   -0.2142 H   0  0  0  0  0  0  0  0  0  0  0  0
   -0.0530   -2.1024    0.3243 H   0  0  0  0  0  0  0  0  0  0  0  0
   -0.0713   -1.2241   -1.1869 H   0  0  0  0  0  0  0  0  0  0  0  0
    2.2898   -0.9788   -1.0769 H   0  0  0  0  0  0  0  0  0  0  0  0
   -1.4653    1.0296   -1.3070 H   0  0  0  0  0  0  0  0  0  0  0  0
   -2.3265    1.5528    0.1364 H   0  0  0  0  0  0  0  0  0  0  0  0
    1.6284    3.9964    0.1825 H   0  0  0  0  0  0  0  0  0  0  0  0
    3.3589    3.8648   -0.1260 H   0  0  0  0  0  0  0  0  0  0  0  0
    2.2101    3.3844   -1.3808 H   0  0  0  0  0  0  0  0  0  0  0  0
    2.8028    0.9812    2.1667 H   0  0  0  0  0  0  0  0  0  0  0  0
    3.5831    2.5434    1.9688 H   0  0  0  0  0  0  0  0  0  0  0  0
    1.8488    2.4713    2.2954 H   0  0  0  0  0  0  0  0  0  0  0  0
   -1.4209   -0.3509    1.4252 H   0  0  0  0  0  0  0  0  0  0  0  0
   -2.6020   -2.1914    0.2664 H   0  0  0  0  0  0  0  0  0  0  0  0
   -3.5350   -0.6902    0.1786 H   0  0  0  0  0  0  0  0  0  0  0  0
   -2.6346   -1.2560   -1.2377 H   0  0  0  0  0  0  0  0  0  0  0  0
  1  2  1  0  0  0  0
  1  3  1  0  0  0  0
  1 12  1  6  0  0  0
  1  4  1  0  0  0  0
  2  5  1  0  0  0  0
  2  6  1  0  0  0  0
  2 13  1  1  0  0  0
  3  7  1  0  0  0  0
  3 14  1  0  0  0  0
  3 15  1  0  0  0  0
  4  8  1  0  0  0  0
  4  9  1  0  0  0  0
  4 16  1  0  0  0  0
  5 10  1  0  0  0  0
  5 17  1  0  0  0  0
  5 18  1  0  0  0  0
  6 19  1  0  0  0  0
  7 10  1  0  0  0  0
  7 20  1  0  0  0  0
  7 21  1  0  0  0  0
  8 22  1  0  0  0  0
  8 23  1  0  0  0  0
  8 24  1  0  0  0  0
  9 25  1  0  0  0  0
  9 26  1  0  0  0  0
  9 27  1  0  0  0  0
 10 11  1  0  0  0  0
 10 28  1  1  0  0  0
 11 29  1  0  0  0  0
 11 30  1  0  0  0  0
 11 31  1  0  0  0  0
M  END
>  <Mol_ID>
3709

>  <Formula>
C10H20O

>  <MolWeight>
156.2652

>  <Cat>
S5868

>  <Name>
DL-Menthol

>  <Synonyms>
N/A

>  <Target>
Others

>  <Form>
Free Base

>  <CAS>
89-78-1

>  <URL>
http://www.selleck.cn/products/dl-menthol.html

$$$$
