DL-Tryptophan
 OpenBabel08302521453D

 27 28  0  0  0  0  0  0  0  0999 V2000
    1.1687    0.1668   -0.2251 C   0  0  0  0  0  0  0  0  0  0  0  0
    1.8779   -1.0832    0.3190 C   0  0  3  0  0  0  0  0  0  0  0  0
    3.1883   -1.3419   -0.4466 C   0  0  0  0  0  0  0  0  0  0  0  0
    2.1291   -0.9717    1.7784 N   0  0  0  0  0  0  0  0  0  0  0  0
    4.2395   -0.6190    0.0141 O   0  0  0  0  0  0  0  0  0  0  0  0
    3.3046   -2.1328   -1.3676 O   0  0  0  0  0  0  0  0  0  0  0  0
    0.3936    1.1394   -2.5388 C   0  0  0  0  0  0  0  0  0  0  0  0
    0.6399    0.0546   -1.6276 C   0  0  0  0  0  0  0  0  0  0  0  0
   -0.2195    0.6037   -3.6721 C   0  0  0  0  0  0  0  0  0  0  0  0
    0.5993    2.5367   -2.4957 C   0  0  0  0  0  0  0  0  0  0  0  0
    0.2375   -1.0965   -2.2751 C   0  0  0  0  0  0  0  0  0  0  0  0
   -0.2484   -0.7595   -3.5079 N   0  0  0  0  0  0  0  0  0  0  0  0
   -0.6927    1.3893   -4.7311 C   0  0  0  0  0  0  0  0  0  0  0  0
    0.1319    3.3378   -3.5471 C   0  0  0  0  0  0  0  0  0  0  0  0
   -0.5195    2.7722   -4.6368 C   0  0  0  0  0  0  0  0  0  0  0  0
    1.8413    1.0318   -0.1579 H   0  0  0  0  0  0  0  0  0  0  0  0
    0.3060    0.3923    0.4181 H   0  0  0  0  0  0  0  0  0  0  0  0
    1.2522   -1.9736    0.1913 H   0  0  0  0  0  0  0  0  0  0  0  0
    2.7174   -1.7418    2.1000 H   0  0  0  0  0  0  0  0  0  0  0  0
    2.5076   -0.0826    2.0797 H   0  0  0  0  0  0  0  0  0  0  0  0
    3.9897   -0.0541    0.7639 H   0  0  0  0  0  0  0  0  0  0  0  0
    1.1052    2.9958   -1.6524 H   0  0  0  0  0  0  0  0  0  0  0  0
    0.2506   -2.1353   -1.9708 H   0  0  0  0  0  0  0  0  0  0  0  0
   -0.6010   -1.4119   -4.1941 H   0  0  0  0  0  0  0  0  0  0  0  0
   -1.1874    0.9460   -5.5877 H   0  0  0  0  0  0  0  0  0  0  0  0
    0.2726    4.4161   -3.5040 H   0  0  0  0  0  0  0  0  0  0  0  0
   -0.9020    3.4114   -5.4305 H   0  0  0  0  0  0  0  0  0  0  0  0
  1  2  1  0  0  0  0
  1  8  1  0  0  0  0
  1 16  1  0  0  0  0
  1 17  1  0  0  0  0
  2  3  1  0  0  0  0
  2  4  1  0  0  0  0
  2 18  1  0  0  0  0
  3  5  1  0  0  0  0
  3  6  2  0  0  0  0
  4 19  1  0  0  0  0
  4 20  1  0  0  0  0
  5 21  1  0  0  0  0
  7  8  1  0  0  0  0
  7  9  2  0  0  0  0
  7 10  1  0  0  0  0
  8 11  2  0  0  0  0
  9 12  1  0  0  0  0
  9 13  1  0  0  0  0
 10 14  2  0  0  0  0
 10 22  1  0  0  0  0
 11 12  1  0  0  0  0
 11 23  1  0  0  0  0
 12 24  1  0  0  0  0
 13 15  2  0  0  0  0
 13 25  1  0  0  0  0
 14 15  1  0  0  0  0
 14 26  1  0  0  0  0
 15 27  1  0  0  0  0
M  END
>  <Mol_ID>
9503

>  <Formula>
C11H12N2O2

>  <MolWeight>
204.22518

>  <Cat>
E4180

>  <Name>
DL-Tryptophan

>  <Synonyms>
(¡À)-Tryptophan

>  <Target>
Others

>  <Form>
free base

>  <CAS>
54-12-6

>  <URL>
https://www.selleckchem.com/products/dl-tryptophan.html

$$$$
