DL-Valine
 OpenBabel08302521453D

 19 18  0  0  0  0  0  0  0  0999 V2000
    0.9067    0.0028    0.0978 C   0  0  3  0  0  0  0  0  0  0  0  0
    0.4170   -1.3855    0.5762 C   0  0  0  0  0  0  0  0  0  0  0  0
    0.3482    0.4096   -1.2897 C   0  0  0  0  0  0  0  0  0  0  0  0
    2.4070    0.0312   -0.0046 N   0  0  0  0  0  0  0  0  0  0  0  0
    0.9922   -1.7476    1.9538 C   0  0  0  0  0  0  0  0  0  0  0  0
   -1.1103   -1.4832    0.6618 C   0  0  0  0  0  0  0  0  0  0  0  0
    1.3562    0.7065   -2.1555 O   0  0  0  0  0  0  0  0  0  0  0  0
   -0.8286    0.5028   -1.5926 O   0  0  0  0  0  0  0  0  0  0  0  0
    0.6093    0.7920    0.7980 H   0  0  0  0  0  0  0  0  0  0  0  0
    0.7528   -2.1470   -0.1412 H   0  0  0  0  0  0  0  0  0  0  0  0
    2.7776    0.1848    0.9380 H   0  0  0  0  0  0  0  0  0  0  0  0
    2.7306   -0.9118   -0.2475 H   0  0  0  0  0  0  0  0  0  0  0  0
    0.6497   -1.0437    2.7219 H   0  0  0  0  0  0  0  0  0  0  0  0
    0.6761   -2.7524    2.2540 H   0  0  0  0  0  0  0  0  0  0  0  0
    2.0871   -1.7467    1.9560 H   0  0  0  0  0  0  0  0  0  0  0  0
   -1.5743   -1.4383   -0.3269 H   0  0  0  0  0  0  0  0  0  0  0  0
   -1.4145   -2.4398    1.1017 H   0  0  0  0  0  0  0  0  0  0  0  0
   -1.5266   -0.6803    1.2793 H   0  0  0  0  0  0  0  0  0  0  0  0
    2.1859    0.6300   -1.6201 H   0  0  0  0  0  0  0  0  0  0  0  0
  1  2  1  0  0  0  0
  1  3  1  0  0  0  0
  1  4  1  0  0  0  0
  1  9  1  0  0  0  0
  2  5  1  0  0  0  0
  2  6  1  0  0  0  0
  2 10  1  0  0  0  0
  3  7  1  0  0  0  0
  3  8  2  0  0  0  0
  4 11  1  0  0  0  0
  4 12  1  0  0  0  0
  5 13  1  0  0  0  0
  5 14  1  0  0  0  0
  5 15  1  0  0  0  0
  6 16  1  0  0  0  0
  6 17  1  0  0  0  0
  6 18  1  0  0  0  0
  7 19  1  0  0  0  0
M  END
>  <Mol_ID>
9515

>  <Formula>
C5H11NO2

>  <MolWeight>
117.14634

>  <Cat>
E4288

>  <Name>
DL-Valine

>  <Synonyms>
DL-Valine

>  <Target>
Others

>  <Form>
free base

>  <CAS>
516-06-3

>  <URL>
https://www.selleckchem.com/products/dl-valine.html

$$$$
