DMU2139
 OpenBabel08302521273D

 37 39  0  0  0  0  0  0  0  0999 V2000
    0.9874    0.0217   -0.0398 O   0  0  0  0  0  0  0  0  0  0  0  0
   -2.9074    3.4596    6.4969 O   0  0  0  0  0  0  0  0  0  0  0  0
   -7.7538    2.2766   10.4592 N   0  0  0  0  0  0  0  0  0  0  0  0
   -0.9014    1.8020    3.2445 C   0  0  0  0  0  0  0  0  0  0  0  0
   -1.2796    0.5294    2.7714 C   0  0  0  0  0  0  0  0  0  0  0  0
   -2.6215    1.6606    5.0006 C   0  0  0  0  0  0  0  0  0  0  0  0
   -1.5772    2.3496    4.3538 C   0  0  0  0  0  0  0  0  0  0  0  0
   -2.3171   -0.1580    3.4190 C   0  0  0  0  0  0  0  0  0  0  0  0
   -0.6114   -0.0209    1.6635 C   0  0  0  0  0  0  0  0  0  0  0  0
    0.1351    2.4896    2.5895 C   0  0  0  0  0  0  0  0  0  0  0  0
   -2.9825    0.3990    4.5197 C   0  0  0  0  0  0  0  0  0  0  0  0
    0.4314    0.6630    1.0333 C   0  0  0  0  0  0  0  0  0  0  0  0
    0.7946    1.9268    1.4901 C   0  0  0  0  0  0  0  0  0  0  0  0
   -3.2811    2.3358    6.1657 C   0  0  0  0  0  0  0  0  0  0  0  0
   -4.3735    1.6485    6.9242 C   0  0  0  0  0  0  0  0  0  0  0  0
   -4.9428    2.2847    7.9639 C   0  0  0  0  0  0  0  0  0  0  0  0
   -5.9980    1.7555    8.8445 C   0  0  0  0  0  0  0  0  0  0  0  0
   -6.1964    0.3945    9.0967 C   0  0  0  0  0  0  0  0  0  0  0  0
    2.3530    0.3299   -0.3006 C   0  0  0  0  0  0  0  0  0  0  0  0
   -6.8057    2.6422    9.5602 C   0  0  0  0  0  0  0  0  0  0  0  0
   -7.1615   -0.0134   10.0185 C   0  0  0  0  0  0  0  0  0  0  0  0
   -7.9056    0.9556   10.6718 C   0  0  0  0  0  0  0  0  0  0  0  0
   -1.2831    3.3337    4.7191 H   0  0  0  0  0  0  0  0  0  0  0  0
   -2.6190   -1.1428    3.0658 H   0  0  0  0  0  0  0  0  0  0  0  0
   -0.8953   -1.0000    1.2833 H   0  0  0  0  0  0  0  0  0  0  0  0
    0.4336    3.4808    2.9265 H   0  0  0  0  0  0  0  0  0  0  0  0
   -3.7772   -0.1867    4.9661 H   0  0  0  0  0  0  0  0  0  0  0  0
    1.5688    2.5082    1.0000 H   0  0  0  0  0  0  0  0  0  0  0  0
   -4.6875    0.6588    6.6344 H   0  0  0  0  0  0  0  0  0  0  0  0
   -4.6097    3.2931    8.2144 H   0  0  0  0  0  0  0  0  0  0  0  0
   -5.5948   -0.3619    8.6024 H   0  0  0  0  0  0  0  0  0  0  0  0
    2.7024   -0.3470   -1.0867 H   0  0  0  0  0  0  0  0  0  0  0  0
    2.4714    1.3521   -0.6718 H   0  0  0  0  0  0  0  0  0  0  0  0
    2.9706    0.1583    0.5878 H   0  0  0  0  0  0  0  0  0  0  0  0
   -6.7100    3.7181    9.4337 H   0  0  0  0  0  0  0  0  0  0  0  0
   -7.3181   -1.0634   10.2360 H   0  0  0  0  0  0  0  0  0  0  0  0
   -8.6544    0.6864   11.4114 H   0  0  0  0  0  0  0  0  0  0  0  0
  1 12  1  0  0  0  0
  1 19  1  0  0  0  0
  2 14  2  0  0  0  0
  3 20  2  0  0  0  0
  3 22  1  0  0  0  0
  4  5  1  0  0  0  0
  4  7  2  0  0  0  0
  4 10  1  0  0  0  0
  5  8  2  0  0  0  0
  5  9  1  0  0  0  0
  6  7  1  0  0  0  0
  6 11  2  0  0  0  0
  6 14  1  0  0  0  0
  7 23  1  0  0  0  0
  8 11  1  0  0  0  0
  8 24  1  0  0  0  0
  9 12  2  0  0  0  0
  9 25  1  0  0  0  0
 10 13  2  0  0  0  0
 10 26  1  0  0  0  0
 11 27  1  0  0  0  0
 12 13  1  0  0  0  0
 13 28  1  0  0  0  0
 14 15  1  0  0  0  0
 15 16  2  0  0  0  0
 15 29  1  0  0  0  0
 16 17  1  0  0  0  0
 16 30  1  0  0  0  0
 17 18  2  0  0  0  0
 17 20  1  0  0  0  0
 18 21  1  0  0  0  0
 18 31  1  0  0  0  0
 19 32  1  0  0  0  0
 19 33  1  0  0  0  0
 19 34  1  0  0  0  0
 20 35  1  0  0  0  0
 21 22  2  0  0  0  0
 21 36  1  0  0  0  0
 22 37  1  0  0  0  0
M  END
>  <Mol_ID>
5354

>  <Formula>
C19H15NO2

>  <MolWeight>
289.3279

>  <Cat>
S0176

>  <Name>
DMU2139

>  <Synonyms>
N/A

>  <Target>
P450 (e.g. CYP17)

>  <Form>
Free Base

>  <CAS>
104890-70-2

>  <URL>
https://www.selleckchem.com/products/dmu2139.html

$$$$
