DMXAA.cdx
 OpenBabel08302520143D

 35 37  0  0  0  0  0  0  0  0999 V2000
   -1.2367    0.7251    0.0035 C   0  0  0  0  0  0  0  0  0  0  0  0
   -1.1574   -0.6665   -0.0070 C   0  0  0  0  0  0  0  0  0  0  0  0
   -2.3410   -1.4271   -0.0306 C   0  0  0  0  0  0  0  0  0  0  0  0
   -3.5807   -0.7627   -0.0162 C   0  0  0  0  0  0  0  0  0  0  0  0
   -3.6447    0.6318   -0.0011 C   0  0  0  0  0  0  0  0  0  0  0  0
   -2.4715    1.3793    0.0054 C   0  0  0  0  0  0  0  0  0  0  0  0
    0.0060    1.5040    0.0194 C   0  0  0  0  0  0  0  0  0  0  0  0
    1.2624    0.7481    0.0136 C   0  0  0  0  0  0  0  0  0  0  0  0
    1.2211   -0.6464    0.0160 C   0  0  0  0  0  0  0  0  0  0  0  0
    0.0361   -1.3552    0.0267 O   0  0  0  0  0  0  0  0  0  0  0  0
    2.4783    1.4289    0.0052 C   0  0  0  0  0  0  0  0  0  0  0  0
    3.6681    0.7087   -0.0004 C   0  0  0  0  0  0  0  0  0  0  0  0
    3.6598   -0.6962    0.0026 C   0  0  0  0  0  0  0  0  0  0  0  0
    2.4242   -1.3888    0.0105 C   0  0  0  0  0  0  0  0  0  0  0  0
    2.3615   -2.8957    0.0013 C   0  0  0  0  0  0  0  0  0  0  0  0
    4.9862   -1.4105   -0.0036 C   0  0  0  0  0  0  0  0  0  0  0  0
   -0.0073    2.7267    0.0348 O   0  0  0  0  0  0  0  0  0  0  0  0
   -2.3190   -2.9375   -0.0385 C   0  0  0  0  0  0  0  0  0  0  0  0
   -2.3426   -3.5460    1.3435 C   0  0  0  0  0  0  0  0  0  0  0  0
   -1.2604   -3.2476    2.0988 O   0  0  0  0  0  0  0  0  0  0  0  0
   -3.2363   -4.2763    1.7474 O   0  0  0  0  0  0  0  0  0  0  0  0
   -4.5118   -1.3289   -0.0154 H   0  0  0  0  0  0  0  0  0  0  0  0
   -4.6095    1.1349    0.0079 H   0  0  0  0  0  0  0  0  0  0  0  0
   -2.5189    2.4663    0.0174 H   0  0  0  0  0  0  0  0  0  0  0  0
    2.5012    2.5168    0.0013 H   0  0  0  0  0  0  0  0  0  0  0  0
    4.6092    1.2564   -0.0085 H   0  0  0  0  0  0  0  0  0  0  0  0
    1.8224   -3.2557    0.8837 H   0  0  0  0  0  0  0  0  0  0  0  0
    1.8508   -3.2440   -0.9025 H   0  0  0  0  0  0  0  0  0  0  0  0
    3.3480   -3.3659    0.0156 H   0  0  0  0  0  0  0  0  0  0  0  0
    5.0887   -2.0314    0.8918 H   0  0  0  0  0  0  0  0  0  0  0  0
    5.0814   -2.0301   -0.9007 H   0  0  0  0  0  0  0  0  0  0  0  0
    5.8235   -0.7036   -0.0060 H   0  0  0  0  0  0  0  0  0  0  0  0
   -3.1908   -3.3111   -0.5909 H   0  0  0  0  0  0  0  0  0  0  0  0
   -1.4478   -3.3247   -0.5796 H   0  0  0  0  0  0  0  0  0  0  0  0
   -0.6259   -2.6514    1.6548 H   0  0  0  0  0  0  0  0  0  0  0  0
  1  2  1  0  0  0  0
  1  7  1  0  0  0  0
  2  3  2  0  0  0  0
  3  4  1  0  0  0  0
  3 18  1  0  0  0  0
  4  5  2  0  0  0  0
  4 22  1  0  0  0  0
  5  6  1  0  0  0  0
  5 23  1  0  0  0  0
  6  1  2  0  0  0  0
  6 24  1  0  0  0  0
  7  8  1  0  0  0  0
  7 17  2  0  0  0  0
  8  9  2  0  0  0  0
  8 11  1  0  0  0  0
  9 10  1  0  0  0  0
 10  2  1  0  0  0  0
 11 12  2  0  0  0  0
 11 25  1  0  0  0  0
 12 13  1  0  0  0  0
 12 26  1  0  0  0  0
 13 14  2  0  0  0  0
 13 16  1  0  0  0  0
 14  9  1  0  0  0  0
 14 15  1  0  0  0  0
 15 27  1  0  0  0  0
 15 28  1  0  0  0  0
 15 29  1  0  0  0  0
 16 30  1  0  0  0  0
 16 31  1  0  0  0  0
 16 32  1  0  0  0  0
 18 19  1  0  0  0  0
 18 33  1  0  0  0  0
 18 34  1  0  0  0  0
 19 20  1  0  0  0  0
 19 21  2  0  0  0  0
 20 35  1  0  0  0  0
M  END
>  <Mol_ID>
314

>  <Formula>
C17H14O4

>  <MolWeight>
282.29066

>  <Cat>
S1537

>  <Name>
Vadimezan (ASA404)

>  <Synonyms>
NSC 640488, DMXAA

>  <Target>
Antiviral,IFN,STING,TNF-alpha,VDA

>  <Form>
free base

>  <CAS>
117570-53-3

>  <URL>
http://selleckchem.com/products/DMXAA(ASA404).html

$$$$
