Dodecanedioic acid
 OpenBabel08302520393D

 38 37  0  0  0  0  0  0  0  0999 V2000
   -0.9785    2.7125    2.8415 C   0  0  0  0  0  0  0  0  0  0  0  0
   -1.7860    1.6174    2.1850 C   0  0  0  0  0  0  0  0  0  0  0  0
   -1.7618    3.6974    3.3404 O   0  0  0  0  0  0  0  0  0  0  0  0
    0.2368    2.7424    2.9268 O   0  0  0  0  0  0  0  0  0  0  0  0
   -0.8951    0.4964    1.6473 C   0  0  0  0  0  0  0  0  0  0  0  0
   -1.6860   -0.6738    1.0588 C   0  0  0  0  0  0  0  0  0  0  0  0
   -2.5094   -0.2968   -0.1758 C   0  0  0  0  0  0  0  0  0  0  0  0
   -3.2861   -1.4825   -0.7593 C   0  0  0  0  0  0  0  0  0  0  0  0
   -4.3221   -2.1088    0.1842 C   0  0  0  0  0  0  0  0  0  0  0  0
   -5.3604   -1.1326    0.7480 C   0  0  0  0  0  0  0  0  0  0  0  0
   -6.2217   -0.4883   -0.3414 C   0  0  0  0  0  0  0  0  0  0  0  0
   -7.2750    0.4789    0.2038 C   0  0  0  0  0  0  0  0  0  0  0  0
   -6.6624    1.7155    0.8554 C   0  0  0  0  0  0  0  0  0  0  0  0
   -7.7094    2.6715    1.3657 C   0  0  0  0  0  0  0  0  0  0  0  0
   -8.4681    3.2215    0.3931 O   0  0  0  0  0  0  0  0  0  0  0  0
   -7.8378    2.9686    2.5425 O   0  0  0  0  0  0  0  0  0  0  0  0
   -2.4842    1.2111    2.9254 H   0  0  0  0  0  0  0  0  0  0  0  0
   -2.3526    2.0765    1.3691 H   0  0  0  0  0  0  0  0  0  0  0  0
   -2.7181    3.5511    3.2125 H   0  0  0  0  0  0  0  0  0  0  0  0
   -0.2046    0.8946    0.8939 H   0  0  0  0  0  0  0  0  0  0  0  0
   -0.2713    0.1102    2.4641 H   0  0  0  0  0  0  0  0  0  0  0  0
   -0.9794   -1.4663    0.7826 H   0  0  0  0  0  0  0  0  0  0  0  0
   -2.3322   -1.0856    1.8414 H   0  0  0  0  0  0  0  0  0  0  0  0
   -3.2078    0.5133    0.0557 H   0  0  0  0  0  0  0  0  0  0  0  0
   -1.8363    0.0930   -0.9494 H   0  0  0  0  0  0  0  0  0  0  0  0
   -3.7841   -1.1540   -1.6792 H   0  0  0  0  0  0  0  0  0  0  0  0
   -2.5767   -2.2609   -1.0652 H   0  0  0  0  0  0  0  0  0  0  0  0
   -4.8402   -2.9140   -0.3508 H   0  0  0  0  0  0  0  0  0  0  0  0
   -3.8055   -2.5911    1.0224 H   0  0  0  0  0  0  0  0  0  0  0  0
   -6.0112   -1.6785    1.4421 H   0  0  0  0  0  0  0  0  0  0  0  0
   -4.8520   -0.3695    1.3453 H   0  0  0  0  0  0  0  0  0  0  0  0
   -5.5942    0.0497   -1.0601 H   0  0  0  0  0  0  0  0  0  0  0  0
   -6.7342   -1.2813   -0.9000 H   0  0  0  0  0  0  0  0  0  0  0  0
   -7.9152    0.7832   -0.6332 H   0  0  0  0  0  0  0  0  0  0  0  0
   -7.9290   -0.0378    0.9163 H   0  0  0  0  0  0  0  0  0  0  0  0
   -6.0525    1.4288    1.7190 H   0  0  0  0  0  0  0  0  0  0  0  0
   -6.0037    2.2531    0.1648 H   0  0  0  0  0  0  0  0  0  0  0  0
   -8.2448    2.9268   -0.5094 H   0  0  0  0  0  0  0  0  0  0  0  0
  1  2  1  0  0  0  0
  1  3  1  0  0  0  0
  1  4  2  0  0  0  0
  2  5  1  0  0  0  0
  2 17  1  0  0  0  0
  2 18  1  0  0  0  0
  3 19  1  0  0  0  0
  5  6  1  0  0  0  0
  5 20  1  0  0  0  0
  5 21  1  0  0  0  0
  6  7  1  0  0  0  0
  6 22  1  0  0  0  0
  6 23  1  0  0  0  0
  7  8  1  0  0  0  0
  7 24  1  0  0  0  0
  7 25  1  0  0  0  0
  8  9  1  0  0  0  0
  8 26  1  0  0  0  0
  8 27  1  0  0  0  0
  9 10  1  0  0  0  0
  9 28  1  0  0  0  0
  9 29  1  0  0  0  0
 10 11  1  0  0  0  0
 10 30  1  0  0  0  0
 10 31  1  0  0  0  0
 11 12  1  0  0  0  0
 11 32  1  0  0  0  0
 11 33  1  0  0  0  0
 12 13  1  0  0  0  0
 12 34  1  0  0  0  0
 12 35  1  0  0  0  0
 13 14  1  0  0  0  0
 13 36  1  0  0  0  0
 13 37  1  0  0  0  0
 14 15  1  0  0  0  0
 14 16  2  0  0  0  0
 15 38  1  0  0  0  0
M  END
>  <Mol_ID>
3623

>  <Formula>
C12H22O4

>  <MolWeight>
230.30068

>  <Cat>
S6267

>  <Name>
Dodecanedioic acid

>  <Synonyms>
N/A

>  <Target>
Others

>  <Form>
free base

>  <CAS>
693-23-2

>  <URL>
http://www.selleck.cn/products/dodecanedioic-acid.html

$$$$
