Dorzagliatin
 OpenBabel08302521303D

 59 61  0  0  0  0  0  0  0  0999 V2000
   -0.6746   -0.6791   -2.8496 C   0  0  0  0  0  0  0  0  0  0  0  0
    0.0143   -1.0568   -1.4998 C   0  0  2  0  0  0  0  0  0  0  0  0
   -0.7458   -0.5650   -0.2384 C   0  0  0  0  0  0  0  0  0  0  0  0
   -0.6436    0.9359    0.1050 C   0  0  0  0  0  0  0  0  0  0  0  0
   -1.1980    1.8485   -0.9857 C   0  0  0  0  0  0  0  0  0  0  0  0
   -0.0378   -0.1401   -3.7601 O   0  0  0  0  0  0  0  0  0  0  0  0
   -2.0164   -0.9923   -2.9403 N   0  0  0  0  0  0  0  0  0  0  0  0
   -1.3948    1.2163    1.4141 C   0  0  0  0  0  0  0  0  0  0  0  0
   -3.1994   -0.8005   -6.1846 N   0  0  0  0  0  0  0  0  0  0  0  0
   -2.1694   -0.8365   -5.3323 N   0  0  0  0  0  0  0  0  0  0  0  0
   -2.7265   -0.8967   -4.1228 C   0  0  0  0  0  0  0  0  0  0  0  0
   -4.1380   -0.8912   -4.2172 C   0  0  0  0  0  0  0  0  0  0  0  0
   -4.4111   -0.8109   -5.5638 C   0  0  0  0  0  0  0  0  0  0  0  0
   -2.9418   -0.7354   -7.6119 C   0  0  0  0  0  0  0  0  0  0  0  0
   -2.7227   -2.1258   -8.2192 C   0  0  2  0  0  0  0  0  0  0  0  0
   -2.3771   -2.0177   -9.7057 C   0  0  0  0  0  0  0  0  0  0  0  0
   -3.4650   -1.4081  -10.4066 O   0  0  0  0  0  0  0  0  0  0  0  0
   -3.9119   -2.9301   -8.1149 O   0  0  0  0  0  0  0  0  0  0  0  0
    1.4595   -0.7540   -1.4134 N   0  0  0  0  0  0  0  0  0  0  0  0
    2.3119   -1.3082   -0.4803 C   0  0  0  0  0  0  0  0  0  0  0  0
    3.6663   -0.8070   -0.7520 C   0  0  0  0  0  0  0  0  0  0  0  0
    3.5587   -0.0011   -1.8171 C   0  0  0  0  0  0  0  0  0  0  0  0
    2.1881    0.0314   -2.3879 C   0  0  0  0  0  0  0  0  0  0  0  0
    2.0365   -2.0620    0.4346 O   0  0  0  0  0  0  0  0  0  0  0  0
    4.5414    0.7263   -2.4462 O   0  0  0  0  0  0  0  0  0  0  0  0
    5.5198    1.3167   -1.6787 C   0  0  0  0  0  0  0  0  0  0  0  0
    6.8043    1.3754   -2.2197 C   0  0  0  0  0  0  0  0  0  0  0  0
    7.8417    1.9449   -1.4805 C   0  0  0  0  0  0  0  0  0  0  0  0
    7.5931    2.4590   -0.2086 C   0  0  0  0  0  0  0  0  0  0  0  0
    6.3002    2.4337    0.3162 C   0  0  0  0  0  0  0  0  0  0  0  0
    5.2603    1.8840   -0.4270 C   0  0  0  0  0  0  0  0  0  0  0  0
   -0.0349   -2.1556   -1.4701 H   0  0  0  0  0  0  0  0  0  0  0  0
   -1.8032   -0.8456   -0.2957 H   0  0  0  0  0  0  0  0  0  0  0  0
   -0.3604   -1.1240    0.6261 H   0  0  0  0  0  0  0  0  0  0  0  0
    0.4103    1.1912    0.2677 H   0  0  0  0  0  0  0  0  0  0  0  0
   -2.2481    1.6215   -1.1986 H   0  0  0  0  0  0  0  0  0  0  0  0
   -1.1367    2.8977   -0.6773 H   0  0  0  0  0  0  0  0  0  0  0  0
   -0.6277    1.7614   -1.9123 H   0  0  0  0  0  0  0  0  0  0  0  0
   -2.5566   -1.2030   -2.1168 H   0  0  0  0  0  0  0  0  0  0  0  0
   -1.0060    0.6019    2.2328 H   0  0  0  0  0  0  0  0  0  0  0  0
   -1.2876    2.2665    1.7064 H   0  0  0  0  0  0  0  0  0  0  0  0
   -2.4655    1.0048    1.3114 H   0  0  0  0  0  0  0  0  0  0  0  0
   -4.8632   -0.9189   -3.4181 H   0  0  0  0  0  0  0  0  0  0  0  0
   -5.3388   -0.7757   -6.1167 H   0  0  0  0  0  0  0  0  0  0  0  0
   -3.8031   -0.2284   -8.0624 H   0  0  0  0  0  0  0  0  0  0  0  0
   -2.0592   -0.1010   -7.7553 H   0  0  0  0  0  0  0  0  0  0  0  0
   -1.9205   -2.6552   -7.6946 H   0  0  0  0  0  0  0  0  0  0  0  0
   -1.4798   -1.4125   -9.8652 H   0  0  0  0  0  0  0  0  0  0  0  0
   -2.2135   -3.0084  -10.1428 H   0  0  0  0  0  0  0  0  0  0  0  0
   -4.0793   -2.1269  -10.6425 H   0  0  0  0  0  0  0  0  0  0  0  0
   -4.6438   -2.4089   -8.4905 H   0  0  0  0  0  0  0  0  0  0  0  0
    4.5300   -1.0459   -0.1626 H   0  0  0  0  0  0  0  0  0  0  0  0
    2.1918   -0.4684   -3.3609 H   0  0  0  0  0  0  0  0  0  0  0  0
    1.7848    1.0461   -2.4351 H   0  0  0  0  0  0  0  0  0  0  0  0
    7.0004    0.9731   -3.2108 H   0  0  0  0  0  0  0  0  0  0  0  0
    8.8465    1.9837   -1.8932 H   0  0  0  0  0  0  0  0  0  0  0  0
    8.4032    2.8871    0.3756 H   0  0  0  0  0  0  0  0  0  0  0  0
    6.1020    2.8378    1.3047 H   0  0  0  0  0  0  0  0  0  0  0  0
    4.2549    1.8933   -0.0179 H   0  0  0  0  0  0  0  0  0  0  0  0
  1  6  2  0  0  0  0
  1  7  1  0  0  0  0
  2 19  1  0  0  0  0
  2 32  1  1  0  0  0
  2  3  1  0  0  0  0
  2  1  1  0  0  0  0
  3  4  1  0  0  0  0
  3 33  1  0  0  0  0
  3 34  1  0  0  0  0
  4  5  1  0  0  0  0
  4  8  1  0  0  0  0
  4 35  1  0  0  0  0
  5 36  1  0  0  0  0
  5 37  1  0  0  0  0
  5 38  1  0  0  0  0
  7 11  1  0  0  0  0
  7 39  1  0  0  0  0
  8 40  1  0  0  0  0
  8 41  1  0  0  0  0
  8 42  1  0  0  0  0
  9 10  1  0  0  0  0
  9 13  1  0  0  0  0
  9 14  1  0  0  0  0
 10 11  2  0  0  0  0
 11 12  1  0  0  0  0
 12 13  2  0  0  0  0
 12 43  1  0  0  0  0
 13 44  1  0  0  0  0
 14 45  1  0  0  0  0
 14 46  1  0  0  0  0
 15 18  1  0  0  0  0
 15 47  1  1  0  0  0
 15 16  1  0  0  0  0
 15 14  1  0  0  0  0
 16 17  1  0  0  0  0
 16 48  1  0  0  0  0
 16 49  1  0  0  0  0
 17 50  1  0  0  0  0
 18 51  1  0  0  0  0
 19 20  1  0  0  0  0
 19 23  1  0  0  0  0
 20 21  1  0  0  0  0
 20 24  2  0  0  0  0
 21 22  2  0  0  0  0
 21 52  1  0  0  0  0
 22 23  1  0  0  0  0
 22 25  1  0  0  0  0
 23 53  1  0  0  0  0
 23 54  1  0  0  0  0
 25 26  1  0  0  0  0
 26 27  2  0  0  0  0
 26 31  1  0  0  0  0
 27 28  1  0  0  0  0
 27 55  1  0  0  0  0
 28 29  2  0  0  0  0
 28 56  1  0  0  0  0
 29 30  1  0  0  0  0
 29 57  1  0  0  0  0
 30 31  2  0  0  0  0
 30 58  1  0  0  0  0
 31 59  1  0  0  0  0
M  END
>  <Mol_ID>
5530

>  <Formula>
C22H27ClN4O5

>  <MolWeight>
462.92658

>  <Cat>
S6921

>  <Name>
Dorzagliatin

>  <Synonyms>
HMS-5552, RO-5305552, Sinogliatin

>  <Target>
Carbohydrate Metabolism

>  <Form>
Free Base

>  <CAS>
1191995-00-2

>  <URL>
https://www.selleckchem.com/products/dorzagliatin.html

$$$$
