Dovitinib (TKI-258)
 OpenBabel08302521593D

 50 54  0  0  0  0  0  0  0  0999 V2000
   -1.2170    0.6519   -1.6420 C   0  0  0  0  0  0  0  0  0  0  0  0
   -1.9134    1.5712   -0.8603 C   0  0  0  0  0  0  0  0  0  0  0  0
   -1.3252    2.0670    0.2975 C   0  0  0  0  0  0  0  0  0  0  0  0
   -0.0463    1.6417    0.6672 C   0  0  0  0  0  0  0  0  0  0  0  0
    0.6793    0.7080   -0.0938 C   0  0  0  0  0  0  0  0  0  0  0  0
    0.0624    0.2281   -1.2565 C   0  0  0  0  0  0  0  0  0  0  0  0
    2.0545    0.2341    0.2456 C   0  0  0  0  0  0  0  0  0  0  0  0
    2.6965   -0.6259   -0.5910 C   0  0  0  0  0  0  0  0  0  0  0  0
    1.9841   -1.1657   -1.7968 C   0  0  0  0  0  0  0  0  0  0  0  0
    0.7306   -0.6943   -2.0620 N   0  0  0  0  0  0  0  0  0  0  0  0
    2.4932   -2.0089   -2.5363 O   0  0  0  0  0  0  0  0  0  0  0  0
    2.6002    0.7201    1.4284 N   0  0  0  0  0  0  0  0  0  0  0  0
    4.0644   -0.9930   -0.3372 C   0  0  0  0  0  0  0  0  0  0  0  0
    4.6756   -2.0095   -1.0516 N   0  0  0  0  0  0  0  0  0  0  0  0
    5.9806   -2.1254   -0.6378 C   0  0  0  0  0  0  0  0  0  0  0  0
    6.1146   -1.1374    0.3244 C   0  0  0  0  0  0  0  0  0  0  0  0
    4.9372   -0.4604    0.5076 N   0  0  0  0  0  0  0  0  0  0  0  0
    7.0401   -2.9697   -1.0060 C   0  0  0  0  0  0  0  0  0  0  0  0
    8.2898   -2.8005   -0.3642 C   0  0  0  0  0  0  0  0  0  0  0  0
    8.4253   -1.7833    0.5911 C   0  0  0  0  0  0  0  0  0  0  0  0
    7.3524   -0.9518    0.9489 C   0  0  0  0  0  0  0  0  0  0  0  0
    9.3431   -3.6701   -0.7045 N   0  0  0  0  0  0  0  0  0  0  0  0
   10.7308   -3.1809   -0.5395 C   0  0  0  0  0  0  0  0  0  0  0  0
   11.7150   -4.1773   -1.2019 C   0  0  0  0  0  0  0  0  0  0  0  0
   11.5987   -5.5542   -0.6639 N   0  0  0  0  0  0  0  0  0  0  0  0
   10.1863   -6.0002   -0.7322 C   0  0  0  0  0  0  0  0  0  0  0  0
    9.1920   -5.0073   -0.0810 C   0  0  0  0  0  0  0  0  0  0  0  0
   12.4555   -6.4682   -1.4203 C   0  0  0  0  0  0  0  0  0  0  0  0
    0.4807    2.1897    1.7745 F   0  0  0  0  0  0  0  0  0  0  0  0
   -1.6779    0.2758   -2.5518 H   0  0  0  0  0  0  0  0  0  0  0  0
   -2.9045    1.9054   -1.1576 H   0  0  0  0  0  0  0  0  0  0  0  0
   -1.8454    2.7923    0.9176 H   0  0  0  0  0  0  0  0  0  0  0  0
    0.2870   -1.0626   -2.8936 H   0  0  0  0  0  0  0  0  0  0  0  0
    2.2868    1.6489    1.7002 H   0  0  0  0  0  0  0  0  0  0  0  0
    3.6223    0.6152    1.4599 H   0  0  0  0  0  0  0  0  0  0  0  0
    4.2280   -2.5503   -1.7852 H   0  0  0  0  0  0  0  0  0  0  0  0
    6.9164   -3.7249   -1.7764 H   0  0  0  0  0  0  0  0  0  0  0  0
    9.3682   -1.6245    1.1036 H   0  0  0  0  0  0  0  0  0  0  0  0
    7.4721   -0.1780    1.6964 H   0  0  0  0  0  0  0  0  0  0  0  0
   10.9881   -3.0836    0.5238 H   0  0  0  0  0  0  0  0  0  0  0  0
   10.8515   -2.2004   -1.0151 H   0  0  0  0  0  0  0  0  0  0  0  0
   12.7366   -3.8136   -1.0361 H   0  0  0  0  0  0  0  0  0  0  0  0
   11.5360   -4.1778   -2.2852 H   0  0  0  0  0  0  0  0  0  0  0  0
    9.8893   -6.1490   -1.7789 H   0  0  0  0  0  0  0  0  0  0  0  0
   10.0911   -6.9659   -0.2211 H   0  0  0  0  0  0  0  0  0  0  0  0
    9.3906   -4.9415    0.9981 H   0  0  0  0  0  0  0  0  0  0  0  0
    8.1763   -5.3988   -0.2094 H   0  0  0  0  0  0  0  0  0  0  0  0
   12.3928   -7.4828   -1.0116 H   0  0  0  0  0  0  0  0  0  0  0  0
   12.1829   -6.5098   -2.4816 H   0  0  0  0  0  0  0  0  0  0  0  0
   13.5050   -6.1619   -1.3488 H   0  0  0  0  0  0  0  0  0  0  0  0
  1  2  2  0  0  0  0
  1 30  1  0  0  0  0
  2  3  1  0  0  0  0
  2 31  1  0  0  0  0
  3  4  2  0  0  0  0
  3 32  1  0  0  0  0
  4  5  1  0  0  0  0
  4 29  1  0  0  0  0
  5  6  2  0  0  0  0
  5  7  1  0  0  0  0
  6  1  1  0  0  0  0
  7  8  2  0  0  0  0
  7 12  1  0  0  0  0
  8  9  1  0  0  0  0
  8 13  1  0  0  0  0
  9 10  1  0  0  0  0
  9 11  2  0  0  0  0
 10  6  1  0  0  0  0
 10 33  1  0  0  0  0
 12 34  1  0  0  0  0
 12 35  1  0  0  0  0
 13 14  1  0  0  0  0
 14 15  1  0  0  0  0
 14 36  1  0  0  0  0
 15 16  2  0  0  0  0
 15 18  1  0  0  0  0
 16 17  1  0  0  0  0
 17 13  2  0  0  0  0
 18 19  2  0  0  0  0
 18 37  1  0  0  0  0
 19 20  1  0  0  0  0
 19 22  1  0  0  0  0
 20 21  2  0  0  0  0
 20 38  1  0  0  0  0
 21 16  1  0  0  0  0
 21 39  1  0  0  0  0
 22 23  1  0  0  0  0
 23 24  1  0  0  0  0
 23 40  1  0  0  0  0
 23 41  1  0  0  0  0
 24 25  1  0  0  0  0
 24 42  1  0  0  0  0
 24 43  1  0  0  0  0
 25 26  1  0  0  0  0
 25 28  1  0  0  0  0
 26 27  1  0  0  0  0
 26 44  1  0  0  0  0
 26 45  1  0  0  0  0
 27 22  1  0  0  0  0
 27 46  1  0  0  0  0
 27 47  1  0  0  0  0
 28 48  1  0  0  0  0
 28 49  1  0  0  0  0
 28 50  1  0  0  0  0
M  END
>  <Mol_ID>
13

>  <Formula>
C21H21FN6O

>  <MolWeight>
392.4294432

>  <Cat>
S1018

>  <Name>
Dovitinib (TKI-258)

>  <Synonyms>
CHIR-258

>  <Target>
c-Kit,FGFR,FLT3,PDGFR,VEGFR

>  <Form>
Citrate

>  <CAS>
405169-16-6

>  <URL>
http://selleckchem.com/products/CHIR-258.html

$$$$
