Dp44mT.cdx
 OpenBabel08302519563D

 35 36  0  0  0  0  0  0  0  0999 V2000
    1.6370    0.5323   -1.4875 C   0  0  0  0  0  0  0  0  0  0  0  0
    0.6110    1.4695   -1.3779 C   0  0  0  0  0  0  0  0  0  0  0  0
   -0.3956    1.2591   -0.4374 C   0  0  0  0  0  0  0  0  0  0  0  0
   -0.4955    0.1176    0.2938 N   0  0  0  0  0  0  0  0  0  0  0  0
    0.5222   -0.7647    0.1719 C   0  0  0  0  0  0  0  0  0  0  0  0
    1.6045   -0.5937   -0.6790 C   0  0  0  0  0  0  0  0  0  0  0  0
   -1.4234    2.3249   -0.1507 C   0  0  0  0  0  0  0  0  0  0  0  0
   -2.6949    2.1248    0.0985 N   0  0  0  0  0  0  0  0  0  0  0  0
   -0.9204    3.7433   -0.1560 C   0  0  0  0  0  0  0  0  0  0  0  0
   -1.7739    4.7991   -0.4391 C   0  0  0  0  0  0  0  0  0  0  0  0
   -1.2239    6.0757   -0.5616 C   0  0  0  0  0  0  0  0  0  0  0  0
    0.1455    6.2553   -0.3790 C   0  0  0  0  0  0  0  0  0  0  0  0
    0.9144    5.1557   -0.0570 C   0  0  0  0  0  0  0  0  0  0  0  0
    0.4115    3.9089    0.0581 N   0  0  0  0  0  0  0  0  0  0  0  0
   -3.1673    0.8408    0.1030 N   0  0  0  0  0  0  0  0  0  0  0  0
   -4.4904    0.5216    0.3904 C   0  0  0  0  0  0  0  0  0  0  0  0
   -4.7730   -0.8617    0.3838 N   0  0  0  0  0  0  0  0  0  0  0  0
   -3.7670   -1.9091    0.5322 C   0  0  0  0  0  0  0  0  0  0  0  0
   -6.1441   -1.3593    0.2541 C   0  0  0  0  0  0  0  0  0  0  0  0
   -5.6588    1.7043    0.6947 S   0  0  0  0  0  0  0  0  0  0  0  0
    2.4626    0.7101   -2.1675 H   0  0  0  0  0  0  0  0  0  0  0  0
    0.6352    2.3650   -1.9905 H   0  0  0  0  0  0  0  0  0  0  0  0
    0.4556   -1.6388    0.8126 H   0  0  0  0  0  0  0  0  0  0  0  0
    2.4107   -1.3189   -0.7059 H   0  0  0  0  0  0  0  0  0  0  0  0
   -2.8355    4.6344   -0.5907 H   0  0  0  0  0  0  0  0  0  0  0  0
   -1.8563    6.9201   -0.8112 H   0  0  0  0  0  0  0  0  0  0  0  0
    0.6035    7.2321   -0.4855 H   0  0  0  0  0  0  0  0  0  0  0  0
    1.9842    5.2382    0.1075 H   0  0  0  0  0  0  0  0  0  0  0  0
   -2.4989    0.1190   -0.1372 H   0  0  0  0  0  0  0  0  0  0  0  0
   -3.9888   -2.4581    1.4533 H   0  0  0  0  0  0  0  0  0  0  0  0
   -3.8340   -2.5899   -0.3213 H   0  0  0  0  0  0  0  0  0  0  0  0
   -2.7471   -1.5424    0.6207 H   0  0  0  0  0  0  0  0  0  0  0  0
   -6.8239   -0.8518    0.9421 H   0  0  0  0  0  0  0  0  0  0  0  0
   -6.4741   -1.1939   -0.7764 H   0  0  0  0  0  0  0  0  0  0  0  0
   -6.1830   -2.4326    0.4673 H   0  0  0  0  0  0  0  0  0  0  0  0
  1  2  2  0  0  0  0
  1 21  1  0  0  0  0
  2  3  1  0  0  0  0
  2 22  1  0  0  0  0
  3  4  2  0  0  0  0
  3  7  1  0  0  0  0
  4  5  1  0  0  0  0
  5  6  2  0  0  0  0
  5 23  1  0  0  0  0
  6  1  1  0  0  0  0
  6 24  1  0  0  0  0
  7  8  2  0  0  0  0
  7  9  1  0  0  0  0
  8 15  1  0  0  0  0
  9 10  2  0  0  0  0
 10 11  1  0  0  0  0
 10 25  1  0  0  0  0
 11 12  2  0  0  0  0
 11 26  1  0  0  0  0
 12 13  1  0  0  0  0
 12 27  1  0  0  0  0
 13 14  2  0  0  0  0
 13 28  1  0  0  0  0
 14  9  1  0  0  0  0
 15 16  1  0  0  0  0
 15 29  1  0  0  0  0
 16 17  1  0  0  0  0
 16 20  2  0  0  0  0
 17 18  1  0  0  0  0
 17 19  1  0  0  0  0
 18 30  1  0  0  0  0
 18 31  1  0  0  0  0
 18 32  1  0  0  0  0
 19 33  1  0  0  0  0
 19 34  1  0  0  0  0
 19 35  1  0  0  0  0
M  END
>  <Mol_ID>
2195

>  <Formula>
C14H15N5S

>  <MolWeight>
285.3674

>  <Cat>
S7909

>  <Name>
Dp44mT

>  <Synonyms>
N/A

>  <Target>
Others

>  <Form>
free base

>  <CAS>
152095-12-0

>  <URL>
http://selleckchem.com/products/dp44mt.html

$$$$
