DPCPX
 OpenBabel08302521373D

 46 48  0  0  0  0  0  0  0  0999 V2000
    0.9850    0.0304   -0.0951 C   0  0  0  0  0  0  0  0  0  0  0  0
    2.0886    0.7466    0.6966 C   0  0  0  0  0  0  0  0  0  0  0  0
    1.7238    1.0518    2.1413 C   0  0  0  0  0  0  0  0  0  0  0  0
   -0.0393   -4.9095    2.1786 O   0  0  0  0  0  0  0  0  0  0  0  0
   -1.1325   -0.4321    1.6786 O   0  0  0  0  0  0  0  0  0  0  0  0
   -1.7655   -2.8394    2.8645 C   0  0  0  0  0  0  0  0  0  0  0  0
   -3.1160   -3.2792    2.2781 C   0  0  0  0  0  0  0  0  0  0  0  0
   -3.1038   -4.6328    1.5798 C   0  0  0  0  0  0  0  0  0  0  0  0
    1.2696   -2.4105    0.0231 C   0  0  0  0  0  0  0  0  0  0  0  0
    0.9883   -3.6300    0.5497 C   0  0  0  0  0  0  0  0  0  0  0  0
    0.6186   -1.2773    0.4452 N   0  0  0  0  0  0  0  0  0  0  0  0
    2.2154   -2.4976   -0.9473 N   0  0  0  0  0  0  0  0  0  0  0  0
    1.7446   -4.5200   -0.1508 N   0  0  0  0  0  0  0  0  0  0  0  0
    0.0616   -3.8323    1.5956 C   0  0  0  0  0  0  0  0  0  0  0  0
   -0.4474   -1.4048    1.3494 C   0  0  0  0  0  0  0  0  0  0  0  0
    2.4728   -3.7905   -1.0659 C   0  0  0  0  0  0  0  0  0  0  0  0
   -0.6978   -2.6946    1.8794 N   0  0  0  0  0  0  0  0  0  0  0  0
    3.4101   -4.4261   -2.0340 C   0  0  0  0  0  0  0  0  0  0  0  0
    4.8528   -3.9761   -1.8128 C   0  0  0  0  0  0  0  0  0  0  0  0
    3.1416   -4.0068   -3.4773 C   0  0  0  0  0  0  0  0  0  0  0  0
    5.5485   -4.1869   -3.1534 C   0  0  0  0  0  0  0  0  0  0  0  0
    4.4440   -4.3305   -4.1975 C   0  0  0  0  0  0  0  0  0  0  0  0
    1.3273   -0.1002   -1.1293 H   0  0  0  0  0  0  0  0  0  0  0  0
    0.0944    0.6665   -0.1442 H   0  0  0  0  0  0  0  0  0  0  0  0
    3.0118    0.1559    0.6797 H   0  0  0  0  0  0  0  0  0  0  0  0
    2.3108    1.6940    0.1906 H   0  0  0  0  0  0  0  0  0  0  0  0
    1.6655    0.1359    2.7373 H   0  0  0  0  0  0  0  0  0  0  0  0
    2.4874    1.6923    2.5951 H   0  0  0  0  0  0  0  0  0  0  0  0
    0.7650    1.5753    2.2074 H   0  0  0  0  0  0  0  0  0  0  0  0
   -1.4540   -3.5598    3.6316 H   0  0  0  0  0  0  0  0  0  0  0  0
   -1.9148   -1.8855    3.3832 H   0  0  0  0  0  0  0  0  0  0  0  0
   -3.8371   -3.3342    3.1029 H   0  0  0  0  0  0  0  0  0  0  0  0
   -3.4903   -2.5222    1.5795 H   0  0  0  0  0  0  0  0  0  0  0  0
   -2.6595   -5.4066    2.2135 H   0  0  0  0  0  0  0  0  0  0  0  0
   -4.1271   -4.9452    1.3454 H   0  0  0  0  0  0  0  0  0  0  0  0
   -2.5507   -4.5882    0.6368 H   0  0  0  0  0  0  0  0  0  0  0  0
    1.7368   -5.5259   -0.0407 H   0  0  0  0  0  0  0  0  0  0  0  0
    3.3544   -5.5209   -1.9631 H   0  0  0  0  0  0  0  0  0  0  0  0
    4.9010   -2.9129   -1.5426 H   0  0  0  0  0  0  0  0  0  0  0  0
    5.3386   -4.5354   -1.0055 H   0  0  0  0  0  0  0  0  0  0  0  0
    2.2881   -4.5361   -3.9136 H   0  0  0  0  0  0  0  0  0  0  0  0
    2.9354   -2.9314   -3.5533 H   0  0  0  0  0  0  0  0  0  0  0  0
    6.2075   -3.3412   -3.3813 H   0  0  0  0  0  0  0  0  0  0  0  0
    6.1704   -5.0889   -3.1357 H   0  0  0  0  0  0  0  0  0  0  0  0
    4.6027   -3.6714   -5.0568 H   0  0  0  0  0  0  0  0  0  0  0  0
    4.4208   -5.3591   -4.5732 H   0  0  0  0  0  0  0  0  0  0  0  0
  1  2  1  0  0  0  0
  1 11  1  0  0  0  0
  1 23  1  0  0  0  0
  1 24  1  0  0  0  0
  2  3  1  0  0  0  0
  2 25  1  0  0  0  0
  2 26  1  0  0  0  0
  3 27  1  0  0  0  0
  3 28  1  0  0  0  0
  3 29  1  0  0  0  0
  4 14  2  0  0  0  0
  5 15  2  0  0  0  0
  6  7  1  0  0  0  0
  6 17  1  0  0  0  0
  6 30  1  0  0  0  0
  6 31  1  0  0  0  0
  7  8  1  0  0  0  0
  7 32  1  0  0  0  0
  7 33  1  0  0  0  0
  8 34  1  0  0  0  0
  8 35  1  0  0  0  0
  8 36  1  0  0  0  0
  9 10  2  0  0  0  0
  9 11  1  0  0  0  0
  9 12  1  0  0  0  0
 10 13  1  0  0  0  0
 10 14  1  0  0  0  0
 11 15  1  0  0  0  0
 12 16  2  0  0  0  0
 13 16  1  0  0  0  0
 13 37  1  0  0  0  0
 14 17  1  0  0  0  0
 15 17  1  0  0  0  0
 16 18  1  0  0  0  0
 18 19  1  0  0  0  0
 18 20  1  0  0  0  0
 18 38  1  0  0  0  0
 19 21  1  0  0  0  0
 19 39  1  0  0  0  0
 19 40  1  0  0  0  0
 20 22  1  0  0  0  0
 20 41  1  0  0  0  0
 20 42  1  0  0  0  0
 21 22  1  0  0  0  0
 21 43  1  0  0  0  0
 21 44  1  0  0  0  0
 22 45  1  0  0  0  0
 22 46  1  0  0  0  0
M  END
>  <Mol_ID>
7507

>  <Formula>
C16H24N4O2

>  <MolWeight>
304.38736

>  <Cat>
E1310

>  <Name>
DPCPX

>  <Synonyms>
PD 116948

>  <Target>
Others

>  <Form>
free base

>  <CAS>
102146-07-6

>  <URL>
https://www.selleckchem.com/products/dpcpx.html

$$$$
