Dropropizine.cdx
 OpenBabel08302522043D

 37 38  0  0  0  0  0  0  0  0999 V2000
   -1.3000   -0.1334    0.9438 N   0  0  0  0  0  0  0  0  0  0  0  0
   -2.6399   -0.0181    1.3235 C   0  0  0  0  0  0  0  0  0  0  0  0
   -0.8280   -1.3338    0.2352 C   0  0  0  0  0  0  0  0  0  0  0  0
   -0.7866    1.1079    0.3312 C   0  0  0  0  0  0  0  0  0  0  0  0
   -2.9469    0.7908    2.4336 C   0  0  0  0  0  0  0  0  0  0  0  0
   -3.7076   -0.6190    0.6486 C   0  0  0  0  0  0  0  0  0  0  0  0
    0.7334   -1.3308    0.2010 C   0  0  0  0  0  0  0  0  0  0  0  0
    0.7576    1.0798    0.3413 C   0  0  0  0  0  0  0  0  0  0  0  0
   -4.2615    1.0339    2.8328 C   0  0  0  0  0  0  0  0  0  0  0  0
   -5.0327   -0.3757    1.0394 C   0  0  0  0  0  0  0  0  0  0  0  0
    1.3928   -0.0902   -0.3123 N   0  0  0  0  0  0  0  0  0  0  0  0
   -5.3102    0.4571    2.1215 C   0  0  0  0  0  0  0  0  0  0  0  0
    1.3537   -0.0476   -1.7843 C   0  0  0  0  0  0  0  0  0  0  0  0
    1.9747    1.1925   -2.4757 C   0  0  3  0  0  0  0  0  0  0  0  0
    3.4174    1.5116   -2.0631 C   0  0  0  0  0  0  0  0  0  0  0  0
    1.9631    0.9571   -3.8947 O   0  0  0  0  0  0  0  0  0  0  0  0
    4.2836    0.4342   -2.4265 O   0  0  0  0  0  0  0  0  0  0  0  0
   -1.1604   -2.2389    0.7580 H   0  0  0  0  0  0  0  0  0  0  0  0
   -1.2213   -1.3656   -0.7877 H   0  0  0  0  0  0  0  0  0  0  0  0
   -1.1617    1.2025   -0.6965 H   0  0  0  0  0  0  0  0  0  0  0  0
   -1.1114    1.9981    0.8817 H   0  0  0  0  0  0  0  0  0  0  0  0
   -2.1349    1.2400    3.0042 H   0  0  0  0  0  0  0  0  0  0  0  0
   -3.5339   -1.2574   -0.2105 H   0  0  0  0  0  0  0  0  0  0  0  0
    1.0906   -1.4772    1.2294 H   0  0  0  0  0  0  0  0  0  0  0  0
    1.0879   -2.2057   -0.3594 H   0  0  0  0  0  0  0  0  0  0  0  0
    1.0856    1.0779    1.3901 H   0  0  0  0  0  0  0  0  0  0  0  0
    1.1404    2.0183   -0.0720 H   0  0  0  0  0  0  0  0  0  0  0  0
   -4.4615    1.6717    3.6864 H   0  0  0  0  0  0  0  0  0  0  0  0
   -5.8519   -0.8272    0.4863 H   0  0  0  0  0  0  0  0  0  0  0  0
   -6.3376    0.6588    2.4125 H   0  0  0  0  0  0  0  0  0  0  0  0
    1.8882   -0.9309   -2.1613 H   0  0  0  0  0  0  0  0  0  0  0  0
    0.3272   -0.1580   -2.1565 H   0  0  0  0  0  0  0  0  0  0  0  0
    1.3450    2.0700   -2.2986 H   0  0  0  0  0  0  0  0  0  0  0  0
    3.7685    2.3889   -2.6171 H   0  0  0  0  0  0  0  0  0  0  0  0
    3.5210    1.7205   -0.9946 H   0  0  0  0  0  0  0  0  0  0  0  0
    2.8089    0.5023   -4.0894 H   0  0  0  0  0  0  0  0  0  0  0  0
    4.2850   -0.1811   -1.6700 H   0  0  0  0  0  0  0  0  0  0  0  0
  1  2  1  0  0  0  0
  1  3  1  0  0  0  0
  1  4  1  0  0  0  0
  2  5  2  0  0  0  0
  2  6  1  0  0  0  0
  3  7  1  0  0  0  0
  3 18  1  0  0  0  0
  3 19  1  0  0  0  0
  4  8  1  0  0  0  0
  4 20  1  0  0  0  0
  4 21  1  0  0  0  0
  5  9  1  0  0  0  0
  5 22  1  0  0  0  0
  6 10  2  0  0  0  0
  6 23  1  0  0  0  0
  7 11  1  0  0  0  0
  7 24  1  0  0  0  0
  7 25  1  0  0  0  0
  8 11  1  0  0  0  0
  8 26  1  0  0  0  0
  8 27  1  0  0  0  0
  9 12  2  0  0  0  0
  9 28  1  0  0  0  0
 10 12  1  0  0  0  0
 10 29  1  0  0  0  0
 11 13  1  0  0  0  0
 12 30  1  0  0  0  0
 13 14  1  0  0  0  0
 13 31  1  0  0  0  0
 13 32  1  0  0  0  0
 14 15  1  0  0  0  0
 14 16  1  0  0  0  0
 14 33  1  0  0  0  0
 15 17  1  0  0  0  0
 15 34  1  0  0  0  0
 15 35  1  0  0  0  0
 16 36  1  0  0  0  0
 17 37  1  0  0  0  0
M  END
>  <Mol_ID>
1284

>  <Formula>
C13H20N2O2

>  <MolWeight>
236.3101

>  <Cat>
S4138

>  <Name>
Dropropizine

>  <Synonyms>
UCB-1967,(¡À)- Dropropizine

>  <Target>
Others

>  <Form>
free base

>  <CAS>
17692-31-8

>  <URL>
http://selleckchem.com/products/dropropizine.html

$$$$
