Droperidol.cdx
 OpenBabel08302522043D

 50 53  0  0  0  0  0  0  0  0999 V2000
   -3.0966    2.5484   -1.4724 C   0  0  0  0  0  0  0  0  0  0  0  0
   -3.8832    1.4000   -1.6743 C   0  0  0  0  0  0  0  0  0  0  0  0
   -3.4561    0.1465   -1.2198 C   0  0  0  0  0  0  0  0  0  0  0  0
   -2.2287    0.0665   -0.5863 C   0  0  0  0  0  0  0  0  0  0  0  0
   -1.4844    1.2210   -0.3536 C   0  0  0  0  0  0  0  0  0  0  0  0
   -1.8794    2.4690   -0.7912 C   0  0  0  0  0  0  0  0  0  0  0  0
   -1.5491   -1.0314    0.0064 N   0  0  0  0  0  0  0  0  0  0  0  0
   -0.3845   -0.4969    0.6607 C   0  0  0  0  0  0  0  0  0  0  0  0
   -0.3697    0.8836    0.3933 N   0  0  0  0  0  0  0  0  0  0  0  0
    0.4694   -1.0792    1.3095 O   0  0  0  0  0  0  0  0  0  0  0  0
   -1.9015   -2.3730    0.0095 C   0  0  0  0  0  0  0  0  0  0  0  0
   -1.5127   -3.2272    1.1886 C   0  0  0  0  0  0  0  0  0  0  0  0
   -2.5734   -4.3103    1.4280 C   0  0  0  0  0  0  0  0  0  0  0  0
   -2.8257   -5.1597    0.2433 N   0  0  0  0  0  0  0  0  0  0  0  0
   -3.0899   -4.3712   -0.9660 C   0  0  0  0  0  0  0  0  0  0  0  0
   -2.6011   -2.9539   -0.9799 C   0  0  0  0  0  0  0  0  0  0  0  0
   -3.9174   -6.1015    0.5684 C   0  0  0  0  0  0  0  0  0  0  0  0
   -4.4449   -7.0113   -0.5524 C   0  0  0  0  0  0  0  0  0  0  0  0
   -3.4063   -7.8479   -1.2882 C   0  0  0  0  0  0  0  0  0  0  0  0
   -2.7113   -8.8462   -0.3840 C   0  0  0  0  0  0  0  0  0  0  0  0
   -3.3467   -9.7789    0.1103 O   0  0  0  0  0  0  0  0  0  0  0  0
   -1.2398   -8.7483   -0.1286 C   0  0  0  0  0  0  0  0  0  0  0  0
   -0.4589   -7.6680   -0.5600 C   0  0  0  0  0  0  0  0  0  0  0  0
    0.9269   -7.6811   -0.3770 C   0  0  0  0  0  0  0  0  0  0  0  0
    1.5283   -8.7598    0.2579 C   0  0  0  0  0  0  0  0  0  0  0  0
    0.7675   -9.8165    0.7401 C   0  0  0  0  0  0  0  0  0  0  0  0
   -0.6164   -9.8111    0.5480 C   0  0  0  0  0  0  0  0  0  0  0  0
    2.8592   -8.7824    0.4018 F   0  0  0  0  0  0  0  0  0  0  0  0
   -3.4549    3.5111   -1.8332 H   0  0  0  0  0  0  0  0  0  0  0  0
   -4.8441    1.4874   -2.1776 H   0  0  0  0  0  0  0  0  0  0  0  0
   -4.1039   -0.7119   -1.3415 H   0  0  0  0  0  0  0  0  0  0  0  0
   -1.2843    3.3540   -0.6065 H   0  0  0  0  0  0  0  0  0  0  0  0
    0.3470    1.5038    0.7378 H   0  0  0  0  0  0  0  0  0  0  0  0
   -1.4479   -2.6261    2.1035 H   0  0  0  0  0  0  0  0  0  0  0  0
   -0.5300   -3.6812    1.0131 H   0  0  0  0  0  0  0  0  0  0  0  0
   -3.5037   -3.8199    1.7508 H   0  0  0  0  0  0  0  0  0  0  0  0
   -2.2379   -4.9386    2.2623 H   0  0  0  0  0  0  0  0  0  0  0  0
   -2.6095   -4.8842   -1.8078 H   0  0  0  0  0  0  0  0  0  0  0  0
   -4.1621   -4.3230   -1.1855 H   0  0  0  0  0  0  0  0  0  0  0  0
   -2.8325   -2.4092   -1.8881 H   0  0  0  0  0  0  0  0  0  0  0  0
   -3.5851   -6.7408    1.3960 H   0  0  0  0  0  0  0  0  0  0  0  0
   -4.7829   -5.5379    0.9459 H   0  0  0  0  0  0  0  0  0  0  0  0
   -5.1923   -7.6809   -0.1061 H   0  0  0  0  0  0  0  0  0  0  0  0
   -4.9919   -6.4110   -1.2890 H   0  0  0  0  0  0  0  0  0  0  0  0
   -3.9208   -8.4410   -2.0564 H   0  0  0  0  0  0  0  0  0  0  0  0
   -2.7124   -7.2224   -1.8471 H   0  0  0  0  0  0  0  0  0  0  0  0
   -0.8919   -6.7963   -1.0384 H   0  0  0  0  0  0  0  0  0  0  0  0
    1.5375   -6.8562   -0.7317 H   0  0  0  0  0  0  0  0  0  0  0  0
    1.2538  -10.6422    1.2497 H   0  0  0  0  0  0  0  0  0  0  0  0
   -1.2055  -10.6497    0.9165 H   0  0  0  0  0  0  0  0  0  0  0  0
  1  2  2  0  0  0  0
  1 29  1  0  0  0  0
  2  3  1  0  0  0  0
  2 30  1  0  0  0  0
  3  4  2  0  0  0  0
  3 31  1  0  0  0  0
  4  5  1  0  0  0  0
  4  7  1  0  0  0  0
  5  6  2  0  0  0  0
  6  1  1  0  0  0  0
  6 32  1  0  0  0  0
  7  8  1  0  0  0  0
  7 11  1  0  0  0  0
  8  9  1  0  0  0  0
  8 10  2  0  0  0  0
  9  5  1  0  0  0  0
  9 33  1  0  0  0  0
 11 12  1  0  0  0  0
 12 13  1  0  0  0  0
 12 34  1  0  0  0  0
 12 35  1  0  0  0  0
 13 14  1  0  0  0  0
 13 36  1  0  0  0  0
 13 37  1  0  0  0  0
 14 15  1  0  0  0  0
 14 17  1  0  0  0  0
 15 16  1  0  0  0  0
 15 38  1  0  0  0  0
 15 39  1  0  0  0  0
 16 11  2  0  0  0  0
 16 40  1  0  0  0  0
 17 18  1  0  0  0  0
 17 41  1  0  0  0  0
 17 42  1  0  0  0  0
 18 19  1  0  0  0  0
 18 43  1  0  0  0  0
 18 44  1  0  0  0  0
 19 20  1  0  0  0  0
 19 45  1  0  0  0  0
 19 46  1  0  0  0  0
 20 21  2  0  0  0  0
 20 22  1  0  0  0  0
 22 23  2  0  0  0  0
 23 24  1  0  0  0  0
 23 47  1  0  0  0  0
 24 25  2  0  0  0  0
 24 48  1  0  0  0  0
 25 26  1  0  0  0  0
 25 28  1  0  0  0  0
 26 27  2  0  0  0  0
 26 49  1  0  0  0  0
 27 22  1  0  0  0  0
 27 50  1  0  0  0  0
M  END
>  <Mol_ID>
1322

>  <Formula>
C22H22FN3O2

>  <MolWeight>
379.4273832

>  <Cat>
S4096

>  <Name>
Droperidol

>  <Synonyms>
NSC 169874,Dehydrobenzperidol

>  <Target>
Dopamine Receptor

>  <Form>
free base

>  <CAS>
548-73-2

>  <URL>
http://selleckchem.com/products/droperidol.html

$$$$
