DSS Crosslinker
 OpenBabel08302521313D

 46 47  0  0  0  0  0  0  0  0999 V2000
    1.8704   -1.4997    0.2400 O   0  0  0  0  0  0  0  0  0  0  0  0
   -1.2691    2.4983   -2.2140 O   0  0  0  0  0  0  0  0  0  0  0  0
    1.5015    0.6200    1.0407 O   0  0  0  0  0  0  0  0  0  0  0  0
   -2.0729    0.5620   -1.2828 O   0  0  0  0  0  0  0  0  0  0  0  0
   -0.5446   -2.8874    1.0245 O   0  0  0  0  0  0  0  0  0  0  0  0
    3.7559   -2.1464    2.1366 O   0  0  0  0  0  0  0  0  0  0  0  0
   -3.6949    2.4273   -3.5799 O   0  0  0  0  0  0  0  0  0  0  0  0
   -1.4741    4.5905   -0.2188 O   0  0  0  0  0  0  0  0  0  0  0  0
    1.5349   -1.9733    1.5089 N   0  0  0  0  0  0  0  0  0  0  0  0
   -2.4166    3.1661   -1.7962 N   0  0  0  0  0  0  0  0  0  0  0  0
    1.9120   -0.3712   -2.8736 C   0  0  0  0  0  0  0  0  0  0  0  0
    1.5261    1.0576   -3.2571 C   0  0  0  0  0  0  0  0  0  0  0  0
    3.1918   -0.4575   -2.0451 C   0  0  0  0  0  0  0  0  0  0  0  0
    0.2518    1.1156   -4.1015 C   0  0  0  0  0  0  0  0  0  0  0  0
    3.1350    0.2766   -0.7069 C   0  0  0  0  0  0  0  0  0  0  0  0
   -0.9756    0.4887   -3.4406 C   0  0  0  0  0  0  0  0  0  0  0  0
    0.4883   -3.1113    3.1990 C   0  0  0  0  0  0  0  0  0  0  0  0
    1.9903   -3.1245    3.4593 C   0  0  0  0  0  0  0  0  0  0  0  0
   -4.4847    4.1398   -2.0814 C   0  0  0  0  0  0  0  0  0  0  0  0
   -3.7991    4.7356   -0.8505 C   0  0  0  0  0  0  0  0  0  0  0  0
    2.0384   -0.1446    0.2487 C   0  0  0  0  0  0  0  0  0  0  0  0
   -1.4425    1.1443   -2.1573 C   0  0  0  0  0  0  0  0  0  0  0  0
    0.3870   -2.6409    1.7720 C   0  0  0  0  0  0  0  0  0  0  0  0
    2.5647   -2.3304    2.3254 C   0  0  0  0  0  0  0  0  0  0  0  0
   -3.5196    3.1136   -2.5834 C   0  0  0  0  0  0  0  0  0  0  0  0
   -2.4073    4.1642   -0.8864 C   0  0  0  0  0  0  0  0  0  0  0  0
    2.0480   -0.9606   -3.7892 H   0  0  0  0  0  0  0  0  0  0  0  0
    1.1040   -0.8487   -2.3123 H   0  0  0  0  0  0  0  0  0  0  0  0
    1.3912    1.6753   -2.3635 H   0  0  0  0  0  0  0  0  0  0  0  0
    2.3442    1.5115   -3.8310 H   0  0  0  0  0  0  0  0  0  0  0  0
    4.0266   -0.0531   -2.6309 H   0  0  0  0  0  0  0  0  0  0  0  0
    3.4209   -1.5164   -1.8745 H   0  0  0  0  0  0  0  0  0  0  0  0
    0.0472    2.1631   -4.3558 H   0  0  0  0  0  0  0  0  0  0  0  0
    0.4319    0.6015   -5.0538 H   0  0  0  0  0  0  0  0  0  0  0  0
    3.0457    1.3548   -0.8750 H   0  0  0  0  0  0  0  0  0  0  0  0
    4.0820    0.1152   -0.1781 H   0  0  0  0  0  0  0  0  0  0  0  0
   -1.8155    0.5515   -4.1419 H   0  0  0  0  0  0  0  0  0  0  0  0
   -0.8109   -0.5753   -3.2461 H   0  0  0  0  0  0  0  0  0  0  0  0
   -0.0261   -2.4032    3.8572 H   0  0  0  0  0  0  0  0  0  0  0  0
    0.0545   -4.1074    3.3211 H   0  0  0  0  0  0  0  0  0  0  0  0
    2.2507   -2.6825    4.4232 H   0  0  0  0  0  0  0  0  0  0  0  0
    2.3832   -4.1450    3.3975 H   0  0  0  0  0  0  0  0  0  0  0  0
   -4.6132    4.8935   -2.8654 H   0  0  0  0  0  0  0  0  0  0  0  0
   -5.4487    3.6821   -1.8458 H   0  0  0  0  0  0  0  0  0  0  0  0
   -3.7734    5.8259   -0.9178 H   0  0  0  0  0  0  0  0  0  0  0  0
   -4.3100    4.4293    0.0660 H   0  0  0  0  0  0  0  0  0  0  0  0
  1  9  1  0  0  0  0
  1 21  1  0  0  0  0
  2 10  1  0  0  0  0
  2 22  1  0  0  0  0
  3 21  2  0  0  0  0
  4 22  2  0  0  0  0
  5 23  2  0  0  0  0
  6 24  2  0  0  0  0
  7 25  2  0  0  0  0
  8 26  2  0  0  0  0
  9 23  1  0  0  0  0
  9 24  1  0  0  0  0
 10 25  1  0  0  0  0
 10 26  1  0  0  0  0
 11 12  1  0  0  0  0
 11 13  1  0  0  0  0
 11 27  1  0  0  0  0
 11 28  1  0  0  0  0
 12 14  1  0  0  0  0
 12 29  1  0  0  0  0
 12 30  1  0  0  0  0
 13 15  1  0  0  0  0
 13 31  1  0  0  0  0
 13 32  1  0  0  0  0
 14 16  1  0  0  0  0
 14 33  1  0  0  0  0
 14 34  1  0  0  0  0
 15 21  1  0  0  0  0
 15 35  1  0  0  0  0
 15 36  1  0  0  0  0
 16 22  1  0  0  0  0
 16 37  1  0  0  0  0
 16 38  1  0  0  0  0
 17 18  1  0  0  0  0
 17 23  1  0  0  0  0
 17 39  1  0  0  0  0
 17 40  1  0  0  0  0
 18 24  1  0  0  0  0
 18 41  1  0  0  0  0
 18 42  1  0  0  0  0
 19 20  1  0  0  0  0
 19 25  1  0  0  0  0
 19 43  1  0  0  0  0
 19 44  1  0  0  0  0
 20 26  1  0  0  0  0
 20 45  1  0  0  0  0
 20 46  1  0  0  0  0
M  END
>  <Mol_ID>
5763

>  <Formula>
C16H20N2O8

>  <MolWeight>
368.3386

>  <Cat>
S0657

>  <Name>
DSS Crosslinker

>  <Synonyms>
Disuccinimidyl suberate

>  <Target>
ADC Linker

>  <Form>
Free Base

>  <CAS>
68528-80-3

>  <URL>
http://www.selleckchem.com/products/dss-crosslinker.html

$$$$
