DTHIB
 OpenBabel08302521313D

 30 31  0  0  0  0  0  0  0  0999 V2000
    0.8099    0.0479   -0.2350 N   0  0  0  0  0  0  0  0  0  0  0  0
    0.2236   -0.6873   -1.2542 C   0  0  0  0  0  0  0  0  0  0  0  0
   -0.9767   -0.9205   -1.3145 O   0  0  0  0  0  0  0  0  0  0  0  0
    1.1422   -1.0973   -2.2035 N   0  0  0  0  0  0  0  0  0  0  0  0
    0.8403   -1.7904   -3.4010 C   0  0  0  0  0  0  0  0  0  0  0  0
   -0.4602   -2.1418   -3.7935 C   0  0  0  0  0  0  0  0  0  0  0  0
   -0.6940   -2.8203   -4.9897 C   0  0  0  0  0  0  0  0  0  0  0  0
    0.3745   -3.1446   -5.8075 C   0  0  0  0  0  0  0  0  0  0  0  0
    1.6723   -2.8047   -5.4473 C   0  0  0  0  0  0  0  0  0  0  0  0
    1.9085   -2.1288   -4.2431 C   0  0  0  0  0  0  0  0  0  0  0  0
    0.1540   -3.7896   -6.9590 F   0  0  0  0  0  0  0  0  0  0  0  0
    0.1180    0.5465    0.8972 C   0  0  0  0  0  0  0  0  0  0  0  0
   -1.1429    0.0776    1.2812 C   0  0  0  0  0  0  0  0  0  0  0  0
   -1.8008    0.6307    2.3845 C   0  0  0  0  0  0  0  0  0  0  0  0
   -1.1996    1.6471    3.1340 C   0  0  0  0  0  0  0  0  0  0  0  0
    0.0689    2.0993    2.7711 C   0  0  0  0  0  0  0  0  0  0  0  0
    0.7261    1.5480    1.6627 C   0  0  0  0  0  0  0  0  0  0  0  0
   -3.1336    0.1356    2.7512 N   0  3  0  0  0  0  0  0  0  0  0  0
   -3.6255   -0.7752    2.0734 O   0  0  0  0  0  0  0  0  0  0  0  0
   -3.6879    0.6578    3.7302 O   0  5  0  0  0  0  0  0  0  0  0  0
    1.7259    0.4287   -0.4149 H   0  0  0  0  0  0  0  0  0  0  0  0
    2.1184   -0.9510   -1.9971 H   0  0  0  0  0  0  0  0  0  0  0  0
   -1.3323   -1.9091   -3.1908 H   0  0  0  0  0  0  0  0  0  0  0  0
   -1.7036   -3.0896   -5.2785 H   0  0  0  0  0  0  0  0  0  0  0  0
    2.4936   -3.0644   -6.1086 H   0  0  0  0  0  0  0  0  0  0  0  0
    2.9299   -1.8723   -3.9841 H   0  0  0  0  0  0  0  0  0  0  0  0
   -1.6314   -0.7262    0.7385 H   0  0  0  0  0  0  0  0  0  0  0  0
   -1.7020    2.0865    3.9924 H   0  0  0  0  0  0  0  0  0  0  0  0
    0.5447    2.8888    3.3491 H   0  0  0  0  0  0  0  0  0  0  0  0
    1.7091    1.9334    1.3997 H   0  0  0  0  0  0  0  0  0  0  0  0
  1  2  1  0  0  0  0
  1 12  1  0  0  0  0
  1 21  1  0  0  0  0
  2  3  2  0  0  0  0
  2  4  1  0  0  0  0
  4  5  1  0  0  0  0
  4 22  1  0  0  0  0
  5  6  2  0  0  0  0
  5 10  1  0  0  0  0
  6  7  1  0  0  0  0
  6 23  1  0  0  0  0
  7  8  2  0  0  0  0
  7 24  1  0  0  0  0
  8  9  1  0  0  0  0
  8 11  1  0  0  0  0
  9 10  2  0  0  0  0
  9 25  1  0  0  0  0
 10 26  1  0  0  0  0
 12 13  2  0  0  0  0
 12 17  1  0  0  0  0
 13 14  1  0  0  0  0
 13 27  1  0  0  0  0
 14 15  2  0  0  0  0
 14 18  1  0  0  0  0
 15 16  1  0  0  0  0
 15 28  1  0  0  0  0
 16 17  2  0  0  0  0
 16 29  1  0  0  0  0
 17 30  1  0  0  0  0
 18 19  2  0  0  0  0
 18 20  1  0  0  0  0
M  CHG  2  18   1  20  -1
M  END
>  <Mol_ID>
5783

>  <Formula>
C13H9ClFN3O3

>  <MolWeight>
309.6802632

>  <Cat>
S9806

>  <Name>
DTHIB

>  <Synonyms>
N/A

>  <Target>
HSP (HSP90)

>  <Form>
Free Base

>  <CAS>
897326-30-6

>  <URL>
http://www.selleckchem.com/products/dthib.html

$$$$
