DX3-213B
 OpenBabel08302521353D

 59 61  0  0  0  0  0  0  0  0999 V2000
    0.9847   -0.3644   -0.3822 S   0  0  0  0  0  0  0  0  0  0  0  0
    0.1534   -0.4946    0.7905 O   0  0  0  0  0  0  0  0  0  0  0  0
    2.4249   -0.5178   -0.3132 O   0  0  0  0  0  0  0  0  0  0  0  0
    3.0263    2.0161    0.4679 C   0  0  0  0  0  0  0  0  0  0  0  0
    2.1234    1.8485    1.2957 O   0  0  0  0  0  0  0  0  0  0  0  0
   -0.3191   -6.1929   -2.4548 S   0  0  0  0  0  0  0  0  0  0  0  0
    0.2493   -7.1464   -1.0284 C   0  0  0  0  0  0  0  0  0  0  0  0
   -1.7595   -6.3469   -2.5609 O   0  0  0  0  0  0  0  0  0  0  0  0
    0.5318   -6.5409   -3.5803 O   0  0  0  0  0  0  0  0  0  0  0  0
   -0.4481   -6.7492    0.2675 C   0  0  0  0  0  0  0  0  0  0  0  0
    0.0433   -8.6484   -1.2813 C   0  0  0  0  0  0  0  0  0  0  0  0
    7.8198    3.1704    2.4722 F   0  0  0  0  0  0  0  0  0  0  0  0
    7.5360    1.0892    1.9319 F   0  0  0  0  0  0  0  0  0  0  0  0
    0.6319    1.1592   -1.1504 N   0  0  0  0  0  0  0  0  0  0  0  0
    1.7810    1.7077   -1.8858 C   0  0  0  0  0  0  0  0  0  0  0  0
   -0.1110    2.2479   -0.3657 C   0  0  0  0  0  0  0  0  0  0  0  0
    2.7017    2.5405   -0.9719 C   0  0  1  0  0  0  0  0  0  0  0  0
    0.6155    3.6164   -0.1063 C   0  0  0  0  0  0  0  0  0  0  0  0
    1.9658    3.8612   -0.7833 C   0  0  0  0  0  0  0  0  0  0  0  0
    0.4731   -1.7434   -1.4684 C   0  0  0  0  0  0  0  0  0  0  0  0
    1.4630   -2.5203   -2.1066 C   0  0  0  0  0  0  0  0  0  0  0  0
   -0.7852   -2.3164   -1.2415 C   0  0  0  0  0  0  0  0  0  0  0  0
    1.2162   -3.8716   -2.4356 C   0  0  0  0  0  0  0  0  0  0  0  0
   -1.0338   -3.6622   -1.5691 C   0  0  0  0  0  0  0  0  0  0  0  0
   -0.0117   -4.4565   -2.1062 C   0  0  0  0  0  0  0  0  0  0  0  0
    4.3352    1.8623    0.8871 N   0  0  0  0  0  0  0  0  0  0  0  0
    4.5853    1.4231    2.2700 C   0  0  0  0  0  0  0  0  0  0  0  0
    5.4894    1.7810    0.0190 C   0  0  0  0  0  0  0  0  0  0  0  0
    5.7292    2.2114    2.9053 C   0  0  0  0  0  0  0  0  0  0  0  0
    6.5569    2.7097    0.5530 C   0  0  0  0  0  0  0  0  0  0  0  0
    6.9126    2.2962    1.9679 C   0  0  0  0  0  0  0  0  0  0  0  0
    1.3263   -6.9644   -0.9340 H   0  0  0  0  0  0  0  0  0  0  0  0
   -1.5353   -6.7151    0.1497 H   0  0  0  0  0  0  0  0  0  0  0  0
   -0.2226   -7.4619    1.0705 H   0  0  0  0  0  0  0  0  0  0  0  0
   -0.1102   -5.7655    0.6038 H   0  0  0  0  0  0  0  0  0  0  0  0
    0.6239   -8.9888   -2.1452 H   0  0  0  0  0  0  0  0  0  0  0  0
    0.3648   -9.2440   -0.4177 H   0  0  0  0  0  0  0  0  0  0  0  0
   -1.0088   -8.8854   -1.4746 H   0  0  0  0  0  0  0  0  0  0  0  0
    2.3155    0.9227   -2.4264 H   0  0  0  0  0  0  0  0  0  0  0  0
    1.3649    2.3448   -2.6846 H   0  0  0  0  0  0  0  0  0  0  0  0
   -1.0120    2.4845   -0.9447 H   0  0  0  0  0  0  0  0  0  0  0  0
   -0.4726    1.8655    0.5943 H   0  0  0  0  0  0  0  0  0  0  0  0
    3.6024    2.7577   -1.5407 H   0  0  0  0  0  0  0  0  0  0  0  0
    0.7689    3.7317    0.9775 H   0  0  0  0  0  0  0  0  0  0  0  0
   -0.0521    4.4542   -0.3455 H   0  0  0  0  0  0  0  0  0  0  0  0
    2.5804    4.5603   -0.2001 H   0  0  0  0  0  0  0  0  0  0  0  0
    1.8082    4.3448   -1.7568 H   0  0  0  0  0  0  0  0  0  0  0  0
    2.4602   -2.1197   -2.2829 H   0  0  0  0  0  0  0  0  0  0  0  0
   -1.5542   -1.7425   -0.7239 H   0  0  0  0  0  0  0  0  0  0  0  0
    1.9996   -4.4664   -2.9046 H   0  0  0  0  0  0  0  0  0  0  0  0
   -2.0134   -4.0876   -1.3573 H   0  0  0  0  0  0  0  0  0  0  0  0
    3.6956    1.5294    2.9018 H   0  0  0  0  0  0  0  0  0  0  0  0
    4.8227    0.3557    2.2380 H   0  0  0  0  0  0  0  0  0  0  0  0
    5.8234    0.7363    0.0151 H   0  0  0  0  0  0  0  0  0  0  0  0
    5.2593    2.0325   -1.0126 H   0  0  0  0  0  0  0  0  0  0  0  0
    5.3820    3.2256    3.1541 H   0  0  0  0  0  0  0  0  0  0  0  0
    6.0218    1.7372    3.8437 H   0  0  0  0  0  0  0  0  0  0  0  0
    6.1973    3.7468    0.5490 H   0  0  0  0  0  0  0  0  0  0  0  0
    7.4394    2.6652   -0.0905 H   0  0  0  0  0  0  0  0  0  0  0  0
  1  2  2  0  0  0  0
  1  3  2  0  0  0  0
  1 14  1  0  0  0  0
  1 20  1  0  0  0  0
  4  5  2  0  0  0  0
  4 26  1  0  0  0  0
  6  7  1  0  0  0  0
  6  8  2  0  0  0  0
  6  9  2  0  0  0  0
  6 25  1  0  0  0  0
  7 10  1  0  0  0  0
  7 11  1  0  0  0  0
  7 32  1  0  0  0  0
 10 33  1  0  0  0  0
 10 34  1  0  0  0  0
 10 35  1  0  0  0  0
 11 36  1  0  0  0  0
 11 37  1  0  0  0  0
 11 38  1  0  0  0  0
 12 31  1  0  0  0  0
 13 31  1  0  0  0  0
 14 15  1  0  0  0  0
 14 16  1  0  0  0  0
 15 17  1  0  0  0  0
 15 39  1  0  0  0  0
 15 40  1  0  0  0  0
 16 18  1  0  0  0  0
 16 41  1  0  0  0  0
 16 42  1  0  0  0  0
 17  4  1  0  0  0  0
 17 19  1  0  0  0  0
 17 43  1  6  0  0  0
 18 19  1  0  0  0  0
 18 44  1  0  0  0  0
 18 45  1  0  0  0  0
 19 46  1  0  0  0  0
 19 47  1  0  0  0  0
 20 21  2  0  0  0  0
 20 22  1  0  0  0  0
 21 23  1  0  0  0  0
 21 48  1  0  0  0  0
 22 24  2  0  0  0  0
 22 49  1  0  0  0  0
 23 25  2  0  0  0  0
 23 50  1  0  0  0  0
 24 25  1  0  0  0  0
 24 51  1  0  0  0  0
 26 27  1  0  0  0  0
 26 28  1  0  0  0  0
 27 29  1  0  0  0  0
 27 52  1  0  0  0  0
 27 53  1  0  0  0  0
 28 30  1  0  0  0  0
 28 54  1  0  0  0  0
 28 55  1  0  0  0  0
 29 31  1  0  0  0  0
 29 56  1  0  0  0  0
 29 57  1  0  0  0  0
 30 31  1  0  0  0  0
 30 58  1  0  0  0  0
 30 59  1  0  0  0  0
M  END
>  <Mol_ID>
6828

>  <Formula>
C20H28F2N2O5S2

>  <MolWeight>
478.5735264

>  <Cat>
E1139

>  <Name>
DX3-213B

>  <Target>
OXPHOS

>  <Form>
Free base

>  <CAS>
2749555-66-4

>  <URL>
http://www.selleckchem.com/products/dx3-213b.html

$$$$
