Dxd
 OpenBabel08302521373D

 60 65  0  0  1  0  0  0  0  0999 V2000
    3.6912   -1.1522   -1.4361 C   0  0  0  0  0  0  0  0  0  0  0  0
    5.0555   -1.5693   -0.9518 C   0  0  0  0  0  0  0  0  0  0  0  0
    3.0953   -1.9123   -2.2247 O   0  0  0  0  0  0  0  0  0  0  0  0
    3.0173   -0.0582   -1.0615 N   0  0  0  0  0  0  0  0  0  0  0  0
    5.6734   -2.4168   -1.9356 O   0  0  0  0  0  0  0  0  0  0  0  0
    3.4825    3.8504    3.1311 N   0  0  0  0  0  0  0  0  0  0  0  0
    3.8453    4.2105    1.8931 C   0  0  0  0  0  0  0  0  0  0  0  0
    3.8113    3.3748    0.7513 C   0  0  0  0  0  0  0  0  0  0  0  0
    3.3885    2.0253    0.8416 C   0  0  0  0  0  0  0  0  0  0  0  0
    2.9147    1.6852    2.1517 C   0  0  0  0  0  0  0  0  0  0  0  0
    2.1022    0.5559    2.3317 C   0  0  0  0  0  0  0  0  0  0  0  0
    1.7683    0.0944    3.6121 C   0  0  0  0  0  0  0  0  0  0  0  0
    1.8864    0.9925    4.6641 C   0  0  0  0  0  0  0  0  0  0  0  0
    2.4403    2.2529    4.4732 C   0  0  0  0  0  0  0  0  0  0  0  0
    3.0113    2.6071    3.2566 C   0  0  0  0  0  0  0  0  0  0  0  0
    3.9501    4.2574   -0.4667 C   0  0  0  0  0  0  0  0  0  0  0  0
    3.9518    5.6211    0.0841 N   0  0  0  0  0  0  0  0  0  0  0  0
    3.7788    6.7482   -0.6813 C   0  0  0  0  0  0  0  0  0  0  0  0
    3.6082    8.0108    0.0942 C   0  0  0  0  0  0  0  0  0  0  0  0
    3.8438    8.0610    1.4242 C   0  0  0  0  0  0  0  0  0  0  0  0
    3.9328    6.7822    2.1480 C   0  0  0  0  0  0  0  0  0  0  0  0
    3.9645    5.6304    1.4737 C   0  0  0  0  0  0  0  0  0  0  0  0
    2.9211    9.1491   -0.5920 C   0  0  0  0  0  0  0  0  0  0  0  0
    3.6571    9.4329    2.1058 C   0  0  1  0  0  0  0  0  0  0  0  0
    2.1989    9.7977    1.6790 C   0  0  0  0  0  0  0  0  0  0  0  0
    2.0081    9.8423    0.3168 O   0  0  0  0  0  0  0  0  0  0  0  0
    1.3585    0.0394    1.1186 C   0  0  0  0  0  0  0  0  0  0  0  0
    1.3647    1.1472    0.0170 C   0  0  0  0  0  0  0  0  0  0  0  0
    2.8383    1.2907   -0.4189 C   0  0  2  0  0  0  0  0  0  0  0  0
    3.7166    6.7491   -1.9058 O   0  0  0  0  0  0  0  0  0  0  0  0
    1.3008   10.0664    2.4661 O   0  0  0  0  0  0  0  0  0  0  0  0
    1.2535   -1.2910    3.8533 C   0  0  0  0  0  0  0  0  0  0  0  0
    3.9179    9.3411    3.4929 O   0  0  0  0  0  0  0  0  0  0  0  0
    1.3815    0.6784    5.8671 F   0  0  0  0  0  0  0  0  0  0  0  0
    4.5160   10.6463    1.6230 C   0  0  0  0  0  0  0  0  0  0  0  0
    6.0055   10.5788    1.9110 C   0  0  0  0  0  0  0  0  0  0  0  0
    5.6877   -0.7064   -0.7713 H   0  0  0  0  0  0  0  0  0  0  0  0
    4.9270   -2.1713   -0.0497 H   0  0  0  0  0  0  0  0  0  0  0  0
    2.2009   -0.1991   -1.6513 H   0  0  0  0  0  0  0  0  0  0  0  0
    4.9741   -3.0260   -2.2561 H   0  0  0  0  0  0  0  0  0  0  0  0
    2.3927    2.9742    5.2825 H   0  0  0  0  0  0  0  0  0  0  0  0
    3.0896    4.1711   -1.1357 H   0  0  0  0  0  0  0  0  0  0  0  0
    4.8860    4.0803   -1.0021 H   0  0  0  0  0  0  0  0  0  0  0  0
    3.8077    6.7481    3.2277 H   0  0  0  0  0  0  0  0  0  0  0  0
    2.2886    8.7903   -1.4090 H   0  0  0  0  0  0  0  0  0  0  0  0
    3.6193    9.8677   -1.0369 H   0  0  0  0  0  0  0  0  0  0  0  0
    0.3193   -0.1745    1.3763 H   0  0  0  0  0  0  0  0  0  0  0  0
    1.8299   -0.8983    0.8065 H   0  0  0  0  0  0  0  0  0  0  0  0
    0.9631    2.0975    0.3961 H   0  0  0  0  0  0  0  0  0  0  0  0
    0.7193    0.8583   -0.8166 H   0  0  0  0  0  0  0  0  0  0  0  0
    2.9537    1.9636   -1.2716 H   0  0  0  0  0  0  0  0  0  0  0  0
    1.8038   -1.7460    4.6861 H   0  0  0  0  0  0  0  0  0  0  0  0
    0.1851   -1.2890    4.0781 H   0  0  0  0  0  0  0  0  0  0  0  0
    1.4340   -1.9354    2.9859 H   0  0  0  0  0  0  0  0  0  0  0  0
    3.3530    8.6595    3.8937 H   0  0  0  0  0  0  0  0  0  0  0  0
    4.3988   10.8556    0.5599 H   0  0  0  0  0  0  0  0  0  0  0  0
    4.1360   11.5549    2.1169 H   0  0  0  0  0  0  0  0  0  0  0  0
    6.4186    9.5909    1.6977 H   0  0  0  0  0  0  0  0  0  0  0  0
    6.5323   11.3087    1.2831 H   0  0  0  0  0  0  0  0  0  0  0  0
    6.2142   10.8440    2.9522 H   0  0  0  0  0  0  0  0  0  0  0  0
  1  2  1  0  0  0  0
  1  3  2  0  0  0  0
  1  4  1  0  0  0  0
  2  5  1  0  0  0  0
  2 37  1  0  0  0  0
  2 38  1  0  0  0  0
  4 39  1  0  0  0  0
  5 40  1  0  0  0  0
  6  7  2  0  0  0  0
  6 15  1  0  0  0  0
  7  8  1  0  0  0  0
  8  9  2  0  0  0  0
  9 10  1  0  0  0  0
 10 11  1  0  0  0  0
 10 15  2  0  0  0  0
 11 12  2  0  0  0  0
 12 13  1  0  0  0  0
 12 32  1  0  0  0  0
 13 14  2  0  0  0  0
 13 34  1  0  0  0  0
 14 15  1  0  0  0  0
 14 41  1  0  0  0  0
 16 17  1  0  0  0  0
 16  8  1  0  0  0  0
 16 42  1  0  0  0  0
 16 43  1  0  0  0  0
 17 18  1  0  0  0  0
 17 22  1  0  0  0  0
 18 19  1  0  0  0  0
 18 30  2  0  0  0  0
 19 20  2  0  0  0  0
 20 21  1  0  0  0  0
 21 22  2  0  0  0  0
 21 44  1  0  0  0  0
 22  7  1  0  0  0  0
 23 26  1  0  0  0  0
 23 19  1  0  0  0  0
 23 45  1  0  0  0  0
 23 46  1  0  0  0  0
 24 25  1  0  0  0  0
 24 20  1  0  0  0  0
 24 33  1  1  0  0  0
 24 35  1  0  0  0  0
 25 26  1  0  0  0  0
 25 31  2  0  0  0  0
 27 28  1  0  0  0  0
 27 11  1  0  0  0  0
 27 47  1  0  0  0  0
 27 48  1  0  0  0  0
 28 29  1  0  0  0  0
 28 49  1  0  0  0  0
 28 50  1  0  0  0  0
 29  9  1  0  0  0  0
 29  4  1  0  0  0  0
 29 51  1  6  0  0  0
 32 52  1  0  0  0  0
 32 53  1  0  0  0  0
 32 54  1  0  0  0  0
 33 55  1  0  0  0  0
 35 36  1  0  0  0  0
 35 56  1  0  0  0  0
 35 57  1  0  0  0  0
 36 58  1  0  0  0  0
 36 59  1  0  0  0  0
 36 60  1  0  0  0  0
M  END
>  <Mol_ID>
7585

>  <Formula>
C26H24FN3O6

>  <MolWeight>
493.4836632

>  <Cat>
E2891

>  <Name>
Dxd

>  <Synonyms>
Exatecan derivative for ADC

>  <Target>
Topoisomerase

>  <Form>
free base

>  <CAS>
1599440-33-1

>  <URL>
https://www.selleckchem.com/products/dxd.html

$$$$
