Dydrogesterone
 OpenBabel08302521313D

 51 54  0  0  0  0  0  0  0  0999 V2000
    0.7978   -1.5717   -0.1310 C   0  0  2  0  0  0  0  0  0  0  0  0
    0.2723   -1.1821    1.2556 C   0  0  2  0  0  0  0  0  0  0  0  0
    2.1810   -0.9446   -0.2557 C   0  0  1  0  0  0  0  0  0  0  0  0
    0.0149   -1.3959   -1.4553 C   0  0  0  0  0  0  0  0  0  0  0  0
   -0.7430   -0.0539    1.0282 C   0  0  1  0  0  0  0  0  0  0  0  0
    1.4509   -0.8712    2.1835 C   0  0  0  0  0  0  0  0  0  0  0  0
    3.4475   -0.4489    0.4902 C   0  0  0  0  0  0  0  0  0  0  0  0
    2.9688   -2.4635    0.0937 C   0  0  0  0  0  0  0  0  0  0  0  0
    1.9327    0.7987   -0.2133 C   0  0  0  0  0  0  0  0  0  0  0  0
   -1.0047   -0.3101   -1.3654 C   0  0  0  0  0  0  0  0  0  0  0  0
   -1.7774   -0.4680   -0.0323 C   0  0  2  0  0  0  0  0  0  0  0  0
   -1.4578    0.7290    2.1033 C   0  0  0  0  0  0  0  0  0  0  0  0
    2.7312   -0.5543    1.8433 C   0  0  0  0  0  0  0  0  0  0  0  0
    4.0651   -0.4165   -0.7513 C   0  0  0  0  0  0  0  0  0  0  0  0
    3.5082   -2.8940   -1.2399 C   0  0  0  0  0  0  0  0  0  0  0  0
   -2.8419    0.6208    0.0574 C   0  0  2  0  0  0  0  0  0  0  0  0
   -2.3419   -1.8679    0.3921 C   0  0  0  0  0  0  0  0  0  0  0  0
   -2.9010    0.8630    1.5759 C   0  0  0  0  0  0  0  0  0  0  0  0
    3.8379   -1.5490   -1.8305 C   0  0  0  0  0  0  0  0  0  0  0  0
   -4.0912    0.1454   -0.7361 C   0  0  0  0  0  0  0  0  0  0  0  0
    3.7960   -1.3117   -3.0311 O   0  0  0  0  0  0  0  0  0  0  0  0
   -5.4129   -0.0084    0.0069 C   0  0  0  0  0  0  0  0  0  0  0  0
   -3.9954   -0.1976   -1.9051 O   0  0  0  0  0  0  0  0  0  0  0  0
    0.8046   -2.6691   -0.1488 H   0  0  0  0  0  0  0  0  0  0  0  0
   -0.2139   -2.0762    1.6774 H   0  0  0  0  0  0  0  0  0  0  0  0
    0.6785   -1.2449   -2.3173 H   0  0  0  0  0  0  0  0  0  0  0  0
   -0.5346   -2.3172   -1.6986 H   0  0  0  0  0  0  0  0  0  0  0  0
   -0.2150    0.7618    0.5641 H   0  0  0  0  0  0  0  0  0  0  0  0
    1.1989   -0.9716    3.2441 H   0  0  0  0  0  0  0  0  0  0  0  0
    3.8195   -2.4877    0.8083 H   0  0  0  0  0  0  0  0  0  0  0  0
    2.3344   -3.2269    0.5736 H   0  0  0  0  0  0  0  0  0  0  0  0
    2.8149    1.4777   -0.2166 H   0  0  0  0  0  0  0  0  0  0  0  0
    1.3856    1.1576   -1.0803 H   0  0  0  0  0  0  0  0  0  0  0  0
    1.4706    1.1787    0.7145 H   0  0  0  0  0  0  0  0  0  0  0  0
   -1.5964   -0.2614   -2.2767 H   0  0  0  0  0  0  0  0  0  0  0  0
   -0.4912    0.6627   -1.3896 H   0  0  0  0  0  0  0  0  0  0  0  0
   -0.9992    1.7328    2.1307 H   0  0  0  0  0  0  0  0  0  0  0  0
   -1.3616    0.3224    3.1111 H   0  0  0  0  0  0  0  0  0  0  0  0
    3.4176   -0.3739    2.6626 H   0  0  0  0  0  0  0  0  0  0  0  0
    4.7061    0.3890   -1.1109 H   0  0  0  0  0  0  0  0  0  0  0  0
    2.7350   -3.4375   -1.7940 H   0  0  0  0  0  0  0  0  0  0  0  0
    4.4037   -3.5105   -1.1351 H   0  0  0  0  0  0  0  0  0  0  0  0
   -2.4875    1.5419   -0.4334 H   0  0  0  0  0  0  0  0  0  0  0  0
   -3.3498   -2.0822    0.0404 H   0  0  0  0  0  0  0  0  0  0  0  0
   -1.7179   -2.7087    0.0798 H   0  0  0  0  0  0  0  0  0  0  0  0
   -2.4122   -1.9319    1.4909 H   0  0  0  0  0  0  0  0  0  0  0  0
   -3.2993    1.8537    1.8042 H   0  0  0  0  0  0  0  0  0  0  0  0
   -3.5281    0.1188    2.0706 H   0  0  0  0  0  0  0  0  0  0  0  0
   -6.2067   -0.1820   -0.7214 H   0  0  0  0  0  0  0  0  0  0  0  0
   -5.6785    0.8883    0.5533 H   0  0  0  0  0  0  0  0  0  0  0  0
   -5.3797   -0.8655    0.6907 H   0  0  0  0  0  0  0  0  0  0  0  0
  1  2  1  0  0  0  0
  1  3  1  0  0  0  0
  1  4  1  0  0  0  0
  1 24  1  1  0  0  0
  2  5  1  0  0  0  0
  2  6  1  0  0  0  0
  2 25  1  1  0  0  0
  3  7  1  0  0  0  0
  3  8  1  0  0  0  0
  3  9  1  6  0  0  0
  4 10  1  0  0  0  0
  4 26  1  0  0  0  0
  4 27  1  0  0  0  0
  5 11  1  0  0  0  0
  5 12  1  0  0  0  0
  5 28  1  6  0  0  0
  6 13  2  0  0  0  0
  6 29  1  0  0  0  0
  7 14  2  3  0  0  0
  7 13  1  0  0  0  0
  8 15  1  0  0  0  0
  8 30  1  0  0  0  0
  8 31  1  0  0  0  0
  9 32  1  0  0  0  0
  9 33  1  0  0  0  0
  9 34  1  0  0  0  0
 10 11  1  0  0  0  0
 10 35  1  0  0  0  0
 10 36  1  0  0  0  0
 11 16  1  0  0  0  0
 11 17  1  1  0  0  0
 12 18  1  0  0  0  0
 12 37  1  0  0  0  0
 12 38  1  0  0  0  0
 13 39  1  0  0  0  0
 14 19  1  0  0  0  0
 14 40  1  0  0  0  0
 15 19  1  0  0  0  0
 15 41  1  0  0  0  0
 15 42  1  0  0  0  0
 16 18  1  0  0  0  0
 16 43  1  6  0  0  0
 16 20  1  0  0  0  0
 17 44  1  0  0  0  0
 17 45  1  0  0  0  0
 17 46  1  0  0  0  0
 18 47  1  0  0  0  0
 18 48  1  0  0  0  0
 19 21  2  0  0  0  0
 20 22  1  0  0  0  0
 20 23  2  0  0  0  0
 22 49  1  0  0  0  0
 22 50  1  0  0  0  0
 22 51  1  0  0  0  0
M  END
>  <Mol_ID>
5796

>  <Formula>
C21H28O2

>  <MolWeight>
312.44582

>  <Cat>
S4097

>  <Name>
Dydrogesterone

>  <Synonyms>
NSC 92336

>  <Target>
Estrogen/progestogen Receptor

>  <Form>
Free Base

>  <CAS>
152-62-5

>  <URL>
http://www.selleckchem.com/products/dydrogesterone.html

$$$$
