(E)-3-(4-Methoxyphenyl)acrylic acid
 OpenBabel08302521363D

 23 23  0  0  0  0  0  0  0  0999 V2000
    0.9889   -0.0156   -0.1423 C   0  0  0  0  0  0  0  0  0  0  0  0
    1.0307   -0.6578   -1.3207 C   0  0  0  0  0  0  0  0  0  0  0  0
    1.7684   -0.0609   -2.4515 C   0  0  0  0  0  0  0  0  0  0  0  0
    1.6808   -0.8163   -3.5648 O   0  0  0  0  0  0  0  0  0  0  0  0
    2.3786    0.9927   -2.4047 O   0  0  0  0  0  0  0  0  0  0  0  0
   -1.9528   -1.7456    4.3646 O   0  0  0  0  0  0  0  0  0  0  0  0
   -1.5452   -1.4055    5.6834 C   0  0  0  0  0  0  0  0  0  0  0  0
    0.2547   -0.5027    1.0345 C   0  0  0  0  0  0  0  0  0  0  0  0
    0.7285   -0.1905    2.3151 C   0  0  0  0  0  0  0  0  0  0  0  0
   -0.9486   -1.2087    0.9231 C   0  0  0  0  0  0  0  0  0  0  0  0
    0.0251   -0.5901    3.4606 C   0  0  0  0  0  0  0  0  0  0  0  0
   -1.6455   -1.6099    2.0659 C   0  0  0  0  0  0  0  0  0  0  0  0
   -1.1650   -1.3025    3.3390 C   0  0  0  0  0  0  0  0  0  0  0  0
    1.5199    0.9276   -0.0149 H   0  0  0  0  0  0  0  0  0  0  0  0
    0.5347   -1.6063   -1.4683 H   0  0  0  0  0  0  0  0  0  0  0  0
    1.1656   -1.6380   -3.4794 H   0  0  0  0  0  0  0  0  0  0  0  0
   -0.5698   -1.8425    5.9202 H   0  0  0  0  0  0  0  0  0  0  0  0
   -1.5390   -0.3199    5.8265 H   0  0  0  0  0  0  0  0  0  0  0  0
   -2.2768   -1.8294    6.3782 H   0  0  0  0  0  0  0  0  0  0  0  0
    1.6545    0.3689    2.4380 H   0  0  0  0  0  0  0  0  0  0  0  0
   -1.3762   -1.4417   -0.0479 H   0  0  0  0  0  0  0  0  0  0  0  0
    0.4371   -0.3248    4.4292 H   0  0  0  0  0  0  0  0  0  0  0  0
   -2.5800   -2.1561    1.9615 H   0  0  0  0  0  0  0  0  0  0  0  0
  1  2  2  0  0  0  0
  1  8  1  0  0  0  0
  1 14  1  0  0  0  0
  2  3  1  0  0  0  0
  2 15  1  0  0  0  0
  3  4  1  0  0  0  0
  3  5  2  0  0  0  0
  4 16  1  0  0  0  0
  6  7  1  0  0  0  0
  6 13  1  0  0  0  0
  7 17  1  0  0  0  0
  7 18  1  0  0  0  0
  7 19  1  0  0  0  0
  8  9  2  0  0  0  0
  8 10  1  0  0  0  0
  9 11  1  0  0  0  0
  9 20  1  0  0  0  0
 10 12  2  0  0  0  0
 10 21  1  0  0  0  0
 11 13  2  0  0  0  0
 11 22  1  0  0  0  0
 12 13  1  0  0  0  0
 12 23  1  0  0  0  0
M  END
>  <Mol_ID>
7243

>  <Formula>
C10H10O3

>  <MolWeight>
178.1846

>  <Cat>
E4252

>  <Name>
(E)-3-(4-Methoxyphenyl)acrylic acid

>  <Target>
Others

>  <Form>
Free base

>  <CAS>
943-89-5

>  <URL>
https://www.selleckchem.com/products/e-3-4-methoxyphenyl-acrylic-acid.html

$$$$
