E-64d(Aloxistatin,Loxistatin£©.cdx
 OpenBabel08302519583D

 54 54  0  0  0  0  0  0  0  0999 V2000
   -2.5051    1.9937    2.5419 C   0  0  2  0  0  0  0  0  0  0  0  0
   -3.6156    1.3754    1.7076 C   0  0  2  0  0  0  0  0  0  0  0  0
   -3.6587    2.7476    2.1331 O   0  0  0  0  0  0  0  0  0  0  0  0
   -1.1322    2.3105    2.0011 C   0  0  0  0  0  0  0  0  0  0  0  0
   -4.3871    0.2789    2.4010 C   0  0  0  0  0  0  0  0  0  0  0  0
   -1.0450    3.3128    1.0502 N   0  0  0  0  0  0  0  0  0  0  0  0
   -0.1766    1.6943    2.4176 O   0  0  0  0  0  0  0  0  0  0  0  0
   -5.5046    0.6857    3.0929 O   0  0  0  0  0  0  0  0  0  0  0  0
   -3.9872   -0.8565    2.3335 O   0  0  0  0  0  0  0  0  0  0  0  0
    0.1037    3.6791    0.1698 C   0  0  2  0  0  0  0  0  0  0  0  0
   -6.2631   -0.2785    3.8971 C   0  0  0  0  0  0  0  0  0  0  0  0
   -0.0748    2.9769   -1.1884 C   0  0  0  0  0  0  0  0  0  0  0  0
    1.5206    3.4258    0.7201 C   0  0  0  0  0  0  0  0  0  0  0  0
   -7.2387   -1.1243    3.0893 C   0  0  0  0  0  0  0  0  0  0  0  0
    0.0786    1.6057   -1.1676 N   0  0  0  0  0  0  0  0  0  0  0  0
   -0.3351    3.6080   -2.2009 O   0  0  0  0  0  0  0  0  0  0  0  0
    2.7331    3.8948   -0.1338 C   0  0  0  0  0  0  0  0  0  0  0  0
   -0.0057    0.8333   -2.3845 C   0  0  0  0  0  0  0  0  0  0  0  0
    2.7281    5.4019   -0.3767 C   0  0  0  0  0  0  0  0  0  0  0  0
    4.0176    3.4966    0.6132 C   0  0  0  0  0  0  0  0  0  0  0  0
    1.3323    0.7194   -3.1172 C   0  0  0  0  0  0  0  0  0  0  0  0
    2.4332    0.0272   -2.2928 C   0  0  0  0  0  0  0  0  0  0  0  0
    2.0411   -1.3982   -1.8999 C   0  0  0  0  0  0  0  0  0  0  0  0
    3.7445    0.0111   -3.0795 C   0  0  0  0  0  0  0  0  0  0  0  0
   -2.4861    1.6857    3.5813 H   0  0  0  0  0  0  0  0  0  0  0  0
   -3.4652    1.2215    0.6381 H   0  0  0  0  0  0  0  0  0  0  0  0
   -1.9317    3.7351    0.7892 H   0  0  0  0  0  0  0  0  0  0  0  0
   -0.0270    4.7562   -0.0115 H   0  0  0  0  0  0  0  0  0  0  0  0
   -5.6106   -0.9008    4.5283 H   0  0  0  0  0  0  0  0  0  0  0  0
   -6.8600    0.3277    4.5862 H   0  0  0  0  0  0  0  0  0  0  0  0
    1.6027    3.8962    1.7032 H   0  0  0  0  0  0  0  0  0  0  0  0
    1.6586    2.3494    0.8530 H   0  0  0  0  0  0  0  0  0  0  0  0
   -6.7227   -1.8799    2.4909 H   0  0  0  0  0  0  0  0  0  0  0  0
   -7.9524   -1.6503    3.7397 H   0  0  0  0  0  0  0  0  0  0  0  0
   -7.8083   -0.4887    2.4088 H   0  0  0  0  0  0  0  0  0  0  0  0
    0.3542    1.1471   -0.3080 H   0  0  0  0  0  0  0  0  0  0  0  0
    2.7394    3.3824   -1.1050 H   0  0  0  0  0  0  0  0  0  0  0  0
   -0.4098   -0.1481   -2.1189 H   0  0  0  0  0  0  0  0  0  0  0  0
   -0.7337    1.3085   -3.0516 H   0  0  0  0  0  0  0  0  0  0  0  0
    2.7033    5.9475    0.5721 H   0  0  0  0  0  0  0  0  0  0  0  0
    3.6256    5.7172   -0.9226 H   0  0  0  0  0  0  0  0  0  0  0  0
    1.8592    5.7031   -0.9678 H   0  0  0  0  0  0  0  0  0  0  0  0
    3.9873    2.4425    0.9109 H   0  0  0  0  0  0  0  0  0  0  0  0
    4.9078    3.6398   -0.0081 H   0  0  0  0  0  0  0  0  0  0  0  0
    4.1403    4.0948    1.5233 H   0  0  0  0  0  0  0  0  0  0  0  0
    1.1720    0.1674   -4.0523 H   0  0  0  0  0  0  0  0  0  0  0  0
    1.6754    1.7217   -3.4029 H   0  0  0  0  0  0  0  0  0  0  0  0
    2.6072    0.6019   -1.3748 H   0  0  0  0  0  0  0  0  0  0  0  0
    1.8325   -2.0080   -2.7853 H   0  0  0  0  0  0  0  0  0  0  0  0
    2.8436   -1.8800   -1.3329 H   0  0  0  0  0  0  0  0  0  0  0  0
    1.1513   -1.4093   -1.2634 H   0  0  0  0  0  0  0  0  0  0  0  0
    4.0570    1.0293   -3.3349 H   0  0  0  0  0  0  0  0  0  0  0  0
    4.5447   -0.4448   -2.4872 H   0  0  0  0  0  0  0  0  0  0  0  0
    3.6435   -0.5572   -4.0103 H   0  0  0  0  0  0  0  0  0  0  0  0
  1  2  1  0  0  0  0
  1  3  1  0  0  0  0
  1 25  1  1  0  0  0
  1  4  1  0  0  0  0
  2  3  1  0  0  0  0
  2 26  1  6  0  0  0
  2  5  1  0  0  0  0
  4  6  1  0  0  0  0
  4  7  2  0  0  0  0
  5  8  1  0  0  0  0
  5  9  2  0  0  0  0
  6 27  1  0  0  0  0
  8 11  1  0  0  0  0
 10 13  1  0  0  0  0
 10 28  1  6  0  0  0
 10 12  1  0  0  0  0
 10  6  1  0  0  0  0
 11 14  1  0  0  0  0
 11 29  1  0  0  0  0
 11 30  1  0  0  0  0
 12 15  1  0  0  0  0
 12 16  2  0  0  0  0
 13 17  1  0  0  0  0
 13 31  1  0  0  0  0
 13 32  1  0  0  0  0
 14 33  1  0  0  0  0
 14 34  1  0  0  0  0
 14 35  1  0  0  0  0
 15 18  1  0  0  0  0
 15 36  1  0  0  0  0
 17 19  1  0  0  0  0
 17 20  1  0  0  0  0
 17 37  1  0  0  0  0
 18 21  1  0  0  0  0
 18 38  1  0  0  0  0
 18 39  1  0  0  0  0
 19 40  1  0  0  0  0
 19 41  1  0  0  0  0
 19 42  1  0  0  0  0
 20 43  1  0  0  0  0
 20 44  1  0  0  0  0
 20 45  1  0  0  0  0
 21 22  1  0  0  0  0
 21 46  1  0  0  0  0
 21 47  1  0  0  0  0
 22 23  1  0  0  0  0
 22 24  1  0  0  0  0
 22 48  1  0  0  0  0
 23 49  1  0  0  0  0
 23 50  1  0  0  0  0
 23 51  1  0  0  0  0
 24 52  1  0  0  0  0
 24 53  1  0  0  0  0
 24 54  1  0  0  0  0
M  END
>  <Mol_ID>
2363

>  <Formula>
C17H30N2O5

>  <MolWeight>
342.4305

>  <Cat>
S7393

>  <Name>
Aloxistatin (E64d)

>  <Synonyms>
E-64d

>  <Target>
COVID-19,Cysteine Protease

>  <Form>
free base

>  <CAS>
88321-09-9

>  <URL>
http://selleckchem.com/products/Aloxistatin.html

$$$$
