E7449.cdx
 OpenBabel08302520433D

 39 43  0  0  0  0  0  0  0  0999 V2000
    1.2033    0.0362    2.5039 C   0  0  0  0  0  0  0  0  0  0  0  0
   -0.1483   -0.3257    2.4208 C   0  0  0  0  0  0  0  0  0  0  0  0
   -0.8151   -0.3066    1.1940 C   0  0  0  0  0  0  0  0  0  0  0  0
   -0.0934    0.0840    0.0603 C   0  0  0  0  0  0  0  0  0  0  0  0
    1.2437    0.4338    0.1242 C   0  0  0  0  0  0  0  0  0  0  0  0
    1.9037    0.4162    1.3543 C   0  0  0  0  0  0  0  0  0  0  0  0
   -0.7905    0.1177   -1.2330 C   0  0  0  0  0  0  0  0  0  0  0  0
   -0.1924    0.4524   -2.3384 N   0  0  0  0  0  0  0  0  0  0  0  0
    1.1335    0.7850   -2.2665 N   0  0  0  0  0  0  0  0  0  0  0  0
    1.9086    0.8150   -1.1269 C   0  0  0  0  0  0  0  0  0  0  0  0
   -2.1774   -0.6755    1.1389 N   0  0  0  0  0  0  0  0  0  0  0  0
   -2.7623   -0.6324   -0.0285 C   0  0  0  0  0  0  0  0  0  0  0  0
   -2.1119   -0.2323   -1.1710 N   0  0  0  0  0  0  0  0  0  0  0  0
   -4.2336   -1.0208   -0.1011 C   0  0  0  0  0  0  0  0  0  0  0  0
   -4.6033   -1.7096   -1.3832 N   0  0  0  0  0  0  0  0  0  0  0  0
    3.0954    1.1370   -1.1412 O   0  0  0  0  0  0  0  0  0  0  0  0
   -3.8398   -2.9956   -1.5300 C   0  0  0  0  0  0  0  0  0  0  0  0
   -4.5258   -3.9453   -0.6019 C   0  0  0  0  0  0  0  0  0  0  0  0
   -5.8293   -3.4840   -0.3871 C   0  0  0  0  0  0  0  0  0  0  0  0
   -6.0121   -2.2238   -1.1852 C   0  0  0  0  0  0  0  0  0  0  0  0
   -4.0017   -5.0072    0.1070 C   0  0  0  0  0  0  0  0  0  0  0  0
   -4.8049   -5.5841    1.0901 C   0  0  0  0  0  0  0  0  0  0  0  0
   -6.1127   -5.1161    1.3181 C   0  0  0  0  0  0  0  0  0  0  0  0
   -6.6449   -4.0670    0.5622 C   0  0  0  0  0  0  0  0  0  0  0  0
    1.7080    0.0213    3.4680 H   0  0  0  0  0  0  0  0  0  0  0  0
   -0.6869   -0.6223    3.3179 H   0  0  0  0  0  0  0  0  0  0  0  0
    2.9528    0.6970    1.4208 H   0  0  0  0  0  0  0  0  0  0  0  0
    1.5813    1.0491   -3.1408 H   0  0  0  0  0  0  0  0  0  0  0  0
   -2.6338   -0.2592   -2.0407 H   0  0  0  0  0  0  0  0  0  0  0  0
   -4.4568   -1.6228    0.7902 H   0  0  0  0  0  0  0  0  0  0  0  0
   -4.8123   -0.0937   -0.0168 H   0  0  0  0  0  0  0  0  0  0  0  0
   -2.7717   -2.8941   -1.3247 H   0  0  0  0  0  0  0  0  0  0  0  0
   -3.9502   -3.3516   -2.5633 H   0  0  0  0  0  0  0  0  0  0  0  0
   -6.6560   -1.4897   -0.6887 H   0  0  0  0  0  0  0  0  0  0  0  0
   -6.4503   -2.4645   -2.1621 H   0  0  0  0  0  0  0  0  0  0  0  0
   -2.9771   -5.3315   -0.0396 H   0  0  0  0  0  0  0  0  0  0  0  0
   -4.4007   -6.3770    1.7147 H   0  0  0  0  0  0  0  0  0  0  0  0
   -6.7010   -5.5538    2.1214 H   0  0  0  0  0  0  0  0  0  0  0  0
   -7.6363   -3.6802    0.7727 H   0  0  0  0  0  0  0  0  0  0  0  0
  1  2  2  0  0  0  0
  1 25  1  0  0  0  0
  2  3  1  0  0  0  0
  2 26  1  0  0  0  0
  3  4  2  0  0  0  0
  3 11  1  0  0  0  0
  4  5  1  0  0  0  0
  4  7  1  0  0  0  0
  5  6  2  0  0  0  0
  6  1  1  0  0  0  0
  6 27  1  0  0  0  0
  7  8  2  0  0  0  0
  8  9  1  0  0  0  0
  9 10  1  0  0  0  0
  9 28  1  0  0  0  0
 10  5  1  0  0  0  0
 10 16  2  0  0  0  0
 11 12  2  0  0  0  0
 12 13  1  0  0  0  0
 12 14  1  0  0  0  0
 13  7  1  0  0  0  0
 13 29  1  0  0  0  0
 14 15  1  0  0  0  0
 14 30  1  0  0  0  0
 14 31  1  0  0  0  0
 15 17  1  0  0  0  0
 17 18  1  0  0  0  0
 17 32  1  0  0  0  0
 17 33  1  0  0  0  0
 18 19  2  0  0  0  0
 18 21  1  0  0  0  0
 19 20  1  0  0  0  0
 20 15  1  0  0  0  0
 20 34  1  0  0  0  0
 20 35  1  0  0  0  0
 21 22  2  0  0  0  0
 21 36  1  0  0  0  0
 22 23  1  0  0  0  0
 22 37  1  0  0  0  0
 23 24  2  0  0  0  0
 23 38  1  0  0  0  0
 24 19  1  0  0  0  0
 24 39  1  0  0  0  0
M  END
>  <Mol_ID>
4115

>  <Formula>
C18H15N5O

>  <MolWeight>
317.3446

>  <Cat>
S8419

>  <Name>
Stenoparib (E7449)

>  <Synonyms>
2X-121, MGI25036

>  <Target>
PARP

>  <Form>
free base

>  <CAS>
1140964-99-3

>  <URL>
http://selleckchem.com/products/e7449.html

$$$$
