(E/Z)-IT-603
 OpenBabel08302521313D

 27 28  0  0  0  0  0  0  0  0999 V2000
    1.9290    0.0372    0.0002 Br  0  0  0  0  0  0  0  0  0  0  0  0
   -4.9062   -5.5044   -3.5602 S   0  0  0  0  0  0  0  0  0  0  0  0
   -2.5962    2.4695    0.2019 O   0  0  0  0  0  0  0  0  0  0  0  0
   -4.1195   -0.0453    0.2293 O   0  0  0  0  0  0  0  0  0  0  0  0
   -2.0135   -1.5123   -2.9666 O   0  0  0  0  0  0  0  0  0  0  0  0
   -3.7893   -4.1378   -1.5209 N   0  0  0  0  0  0  0  0  0  0  0  0
   -3.3446   -3.3156   -3.5436 N   0  0  0  0  0  0  0  0  0  0  0  0
   -2.0301   -1.2342    0.0519 C   0  0  0  0  0  0  0  0  0  0  0  0
   -3.0321   -3.0155   -1.3125 C   0  0  0  0  0  0  0  0  0  0  0  0
   -2.7162   -2.5225   -0.1094 C   0  0  0  0  0  0  0  0  0  0  0  0
   -2.7498   -0.0220    0.1474 C   0  0  0  0  0  0  0  0  0  0  0  0
   -0.6312   -1.2127    0.0243 C   0  0  0  0  0  0  0  0  0  0  0  0
   -2.0708    1.2053    0.1574 C   0  0  0  0  0  0  0  0  0  0  0  0
   -2.7029   -2.4691   -2.6799 C   0  0  0  0  0  0  0  0  0  0  0  0
    0.0393    0.0065    0.0544 C   0  0  0  0  0  0  0  0  0  0  0  0
   -0.6707    1.2040    0.1078 C   0  0  0  0  0  0  0  0  0  0  0  0
   -4.0011   -4.3118   -2.8755 C   0  0  0  0  0  0  0  0  0  0  0  0
   -4.0085    2.6180    0.2168 C   0  0  0  0  0  0  0  0  0  0  0  0
   -4.4373   -0.9604    0.2319 H   0  0  0  0  0  0  0  0  0  0  0  0
   -4.1866   -4.7335   -0.8073 H   0  0  0  0  0  0  0  0  0  0  0  0
   -3.3158   -3.2054   -4.5461 H   0  0  0  0  0  0  0  0  0  0  0  0
   -3.0165   -3.0185    0.8085 H   0  0  0  0  0  0  0  0  0  0  0  0
   -0.0674   -2.1391   -0.0516 H   0  0  0  0  0  0  0  0  0  0  0  0
   -0.1417    2.1543    0.1044 H   0  0  0  0  0  0  0  0  0  0  0  0
   -4.4757    2.1597   -0.6609 H   0  0  0  0  0  0  0  0  0  0  0  0
   -4.4294    2.2401    1.1539 H   0  0  0  0  0  0  0  0  0  0  0  0
   -4.2296    3.6888    0.1702 H   0  0  0  0  0  0  0  0  0  0  0  0
  1 15  1  0  0  0  0
  2 17  2  0  0  0  0
  3 13  1  0  0  0  0
  3 18  1  0  0  0  0
  4 11  1  0  0  0  0
  4 19  1  0  0  0  0
  5 14  2  0  0  0  0
  6  9  1  0  0  0  0
  6 17  1  0  0  0  0
  6 20  1  0  0  0  0
  7 14  1  0  0  0  0
  7 17  1  0  0  0  0
  7 21  1  0  0  0  0
  8 10  1  0  0  0  0
  8 11  2  0  0  0  0
  8 12  1  0  0  0  0
  9 10  2  0  0  0  0
  9 14  1  0  0  0  0
 10 22  1  0  0  0  0
 11 13  1  0  0  0  0
 12 15  2  0  0  0  0
 12 23  1  0  0  0  0
 13 16  2  0  0  0  0
 15 16  1  0  0  0  0
 16 24  1  0  0  0  0
 18 25  1  0  0  0  0
 18 26  1  0  0  0  0
 18 27  1  0  0  0  0
M  END
>  <Mol_ID>
5867

>  <Formula>
C11H9BrN2O3S

>  <MolWeight>
329.16976

>  <Cat>
S3384

>  <Name>
(E/Z)-IT-603

>  <Synonyms>
N/A

>  <Target>
NF-¦ÊB

>  <Form>
Free Base

>  <CAS>
292168-90-2

>  <URL>
http://www.selleckchem.com/products/it-603.html

$$$$
