EDC hydrochloride
 OpenBabel08302521343D

 28 27  0  0  0  0  0  0  0  0999 V2000
    1.0469   -0.2688   -0.1376 C   0  0  0  0  0  0  0  0  0  0  0  0
    0.5572   -1.6577   -0.0976 N   0  0  0  0  0  0  0  0  0  0  0  0
    0.4687    0.4927    1.0541 C   0  0  0  0  0  0  0  0  0  0  0  0
    0.5154   -2.1777   -1.1501 C   0  0  0  0  0  0  0  0  0  0  0  0
    0.8996    1.9668    1.0805 C   0  0  0  0  0  0  0  0  0  0  0  0
    0.4764   -2.6817   -2.2076 N   0  0  0  0  0  0  0  0  0  0  0  0
    0.5383    2.7429   -0.1209 N   0  0  0  0  0  0  0  0  0  0  0  0
    1.7315   -2.5718   -2.9627 C   0  0  0  0  0  0  0  0  0  0  0  0
   -0.9119    2.8447   -0.2963 C   0  0  0  0  0  0  0  0  0  0  0  0
    1.1215    4.0867   -0.0414 C   0  0  0  0  0  0  0  0  0  0  0  0
    1.4930   -3.0766   -4.3754 C   0  0  0  0  0  0  0  0  0  0  0  0
    0.7632    0.2261   -1.0751 H   0  0  0  0  0  0  0  0  0  0  0  0
    2.1428   -0.2715   -0.0733 H   0  0  0  0  0  0  0  0  0  0  0  0
   -0.6247    0.4103    1.0601 H   0  0  0  0  0  0  0  0  0  0  0  0
    0.8038    0.0154    1.9850 H   0  0  0  0  0  0  0  0  0  0  0  0
    0.4793    2.4384    1.9785 H   0  0  0  0  0  0  0  0  0  0  0  0
    1.9912    1.9871    1.1980 H   0  0  0  0  0  0  0  0  0  0  0  0
    2.0788   -1.5311   -3.0096 H   0  0  0  0  0  0  0  0  0  0  0  0
    2.5157   -3.1758   -2.4897 H   0  0  0  0  0  0  0  0  0  0  0  0
   -1.4010    3.3169    0.5625 H   0  0  0  0  0  0  0  0  0  0  0  0
   -1.1472    3.4308   -1.1926 H   0  0  0  0  0  0  0  0  0  0  0  0
   -1.3621    1.8610   -0.4614 H   0  0  0  0  0  0  0  0  0  0  0  0
    0.8900    4.5841    0.9075 H   0  0  0  0  0  0  0  0  0  0  0  0
    2.2101    4.0334   -0.1507 H   0  0  0  0  0  0  0  0  0  0  0  0
    0.7581    4.7252   -0.8553 H   0  0  0  0  0  0  0  0  0  0  0  0
    0.7488   -2.4592   -4.8897 H   0  0  0  0  0  0  0  0  0  0  0  0
    2.4218   -3.0465   -4.9534 H   0  0  0  0  0  0  0  0  0  0  0  0
    1.1248   -4.1076   -4.3676 H   0  0  0  0  0  0  0  0  0  0  0  0
  1  2  1  0  0  0  0
  1  3  1  0  0  0  0
  1 12  1  0  0  0  0
  1 13  1  0  0  0  0
  2  4  2  0  0  0  0
  3  5  1  0  0  0  0
  3 14  1  0  0  0  0
  3 15  1  0  0  0  0
  4  6  2  0  0  0  0
  5  7  1  0  0  0  0
  5 16  1  0  0  0  0
  5 17  1  0  0  0  0
  6  8  1  0  0  0  0
  7  9  1  0  0  0  0
  7 10  1  0  0  0  0
  8 11  1  0  0  0  0
  8 18  1  0  0  0  0
  8 19  1  0  0  0  0
  9 20  1  0  0  0  0
  9 21  1  0  0  0  0
  9 22  1  0  0  0  0
 10 23  1  0  0  0  0
 10 24  1  0  0  0  0
 10 25  1  0  0  0  0
 11 26  1  0  0  0  0
 11 27  1  0  0  0  0
 11 28  1  0  0  0  0
M  END
>  <Mol_ID>
6476

>  <Formula>
C8H18ClN3

>  <MolWeight>
191.70162

>  <Cat>
E2636

>  <Name>
EDC hydrochloride

>  <Synonyms>
1-(3-Dimethylaminopropyl)-3-ethylcarbodiimide hydrochloride, EDC¡¤HCl

>  <Target>
Others

>  <Form>
hydrochloride

>  <CAS>
25952-53-8

>  <URL>
http://www.selleckchem.com/products/edc-hydrochloride.html

$$$$
