Effusol
 OpenBabel08302521533D

 35 37  0  0  0  0  0  0  0  0999 V2000
    1.0699   -0.2669   -0.2545 C   0  0  0  0  0  0  0  0  0  0  0  0
    0.5812   -1.5087   -0.3629 C   0  0  0  0  0  0  0  0  0  0  0  0
   -3.7159    2.6161    3.9556 C   0  0  0  0  0  0  0  0  0  0  0  0
   -2.3092    0.6014    5.3567 O   0  0  0  0  0  0  0  0  0  0  0  0
    0.3540    2.4968   -4.0335 O   0  0  0  0  0  0  0  0  0  0  0  0
   -1.0190    1.4574    1.4298 C   0  0  0  0  0  0  0  0  0  0  0  0
   -0.6345    1.6677   -0.0134 C   0  0  0  0  0  0  0  0  0  0  0  0
   -2.1215    2.1403    2.0080 C   0  0  0  0  0  0  0  0  0  0  0  0
   -0.3194    0.5959    2.2971 C   0  0  0  0  0  0  0  0  0  0  0  0
   -1.2923    2.6894   -0.7471 C   0  0  0  0  0  0  0  0  0  0  0  0
    0.3331    0.9074   -0.7424 C   0  0  0  0  0  0  0  0  0  0  0  0
   -2.8834    3.1817    1.2286 C   0  0  0  0  0  0  0  0  0  0  0  0
   -2.5511    1.8715    3.3478 C   0  0  0  0  0  0  0  0  0  0  0  0
   -0.7441    0.3020    3.5960 C   0  0  0  0  0  0  0  0  0  0  0  0
   -2.3864    3.5348   -0.1617 C   0  0  0  0  0  0  0  0  0  0  0  0
   -0.9582    2.9785   -2.0900 C   0  0  0  0  0  0  0  0  0  0  0  0
    0.6470    1.2142   -2.0845 C   0  0  0  0  0  0  0  0  0  0  0  0
   -1.8707    0.9181    4.1034 C   0  0  0  0  0  0  0  0  0  0  0  0
    0.0118    2.2461   -2.7425 C   0  0  0  0  0  0  0  0  0  0  0  0
    2.0512   -0.0792    0.1716 H   0  0  0  0  0  0  0  0  0  0  0  0
   -0.3941   -1.7011   -0.8021 H   0  0  0  0  0  0  0  0  0  0  0  0
    1.1498   -2.3601   -0.0066 H   0  0  0  0  0  0  0  0  0  0  0  0
   -3.4876    3.6856    4.0105 H   0  0  0  0  0  0  0  0  0  0  0  0
   -4.6225    2.4632    3.3625 H   0  0  0  0  0  0  0  0  0  0  0  0
   -3.9433    2.2905    4.9752 H   0  0  0  0  0  0  0  0  0  0  0  0
   -1.8096   -0.1682    5.6748 H   0  0  0  0  0  0  0  0  0  0  0  0
   -0.1742    3.2465   -4.3599 H   0  0  0  0  0  0  0  0  0  0  0  0
    0.6001    0.1117    2.0003 H   0  0  0  0  0  0  0  0  0  0  0  0
   -3.9285    2.8573    1.1463 H   0  0  0  0  0  0  0  0  0  0  0  0
   -2.8907    4.1142    1.8092 H   0  0  0  0  0  0  0  0  0  0  0  0
   -0.1709   -0.4055    4.1869 H   0  0  0  0  0  0  0  0  0  0  0  0
   -3.2510    3.4973   -0.8406 H   0  0  0  0  0  0  0  0  0  0  0  0
   -2.0503    4.5804   -0.1622 H   0  0  0  0  0  0  0  0  0  0  0  0
   -1.4789    3.7801   -2.6077 H   0  0  0  0  0  0  0  0  0  0  0  0
    1.3899    0.6307   -2.6252 H   0  0  0  0  0  0  0  0  0  0  0  0
  1  2  2  0  0  0  0
  1 11  1  0  0  0  0
  1 20  1  0  0  0  0
  2 21  1  0  0  0  0
  2 22  1  0  0  0  0
  3 13  1  0  0  0  0
  3 23  1  0  0  0  0
  3 24  1  0  0  0  0
  3 25  1  0  0  0  0
  4 18  1  0  0  0  0
  4 26  1  0  0  0  0
  5 19  1  0  0  0  0
  5 27  1  0  0  0  0
  6  7  1  0  0  0  0
  6  8  1  0  0  0  0
  6  9  2  0  0  0  0
  7 10  2  0  0  0  0
  7 11  1  0  0  0  0
  8 12  1  0  0  0  0
  8 13  2  0  0  0  0
  9 14  1  0  0  0  0
  9 28  1  0  0  0  0
 10 15  1  0  0  0  0
 10 16  1  0  0  0  0
 11 17  2  0  0  0  0
 12 15  1  0  0  0  0
 12 29  1  0  0  0  0
 12 30  1  0  0  0  0
 13 18  1  0  0  0  0
 14 18  2  0  0  0  0
 14 31  1  0  0  0  0
 15 32  1  0  0  0  0
 15 33  1  0  0  0  0
 16 19  2  0  0  0  0
 16 34  1  0  0  0  0
 17 19  1  0  0  0  0
 17 35  1  0  0  0  0
M  END
>  <Mol_ID>
9993

>  <Formula>
C17H16O2

>  <MolWeight>
252.30774

>  <Cat>
E5416

>  <Name>
Effusol

>  <Synonyms>
NA

>  <Target>
DPPH, ABTS radicals

>  <Form>
free base

>  <CAS>
73166-28-6

>  <URL>
https://www.selleckchem.com/products/effusol.html

$$$$
