EG-011
 OpenBabel08302521373D

 62 66  0  0  0  0  0  0  0  0999 V2000
    1.9052    0.8897    0.4730 C   0  0  0  0  0  0  0  0  0  0  0  0
    0.6518    1.4345    0.2826 N   0  0  0  0  0  0  0  0  0  0  0  0
   -0.4879    0.6238    0.1827 C   0  0  0  0  0  0  0  0  0  0  0  0
   -0.3521   -0.7364   -0.0498 C   0  0  0  0  0  0  0  0  0  0  0  0
    1.0219   -1.2935   -0.1791 C   0  0  0  0  0  0  0  0  0  0  0  0
    2.0961   -0.4422    0.1234 N   0  0  0  0  0  0  0  0  0  0  0  0
   -1.7869    1.1180    0.3549 C   0  0  0  0  0  0  0  0  0  0  0  0
   -2.8775    0.2643    0.2267 C   0  0  0  0  0  0  0  0  0  0  0  0
   -2.6409   -1.0652   -0.0675 C   0  0  0  0  0  0  0  0  0  0  0  0
   -1.3999   -1.5887   -0.1969 N   0  0  0  0  0  0  0  0  0  0  0  0
    2.7785    1.6065    0.9706 O   0  0  0  0  0  0  0  0  0  0  0  0
    1.1677   -2.4676   -0.5223 O   0  0  0  0  0  0  0  0  0  0  0  0
    0.5417    2.8976    0.2357 C   0  0  0  0  0  0  0  0  0  0  0  0
    0.2566    3.5638    1.5601 C   0  0  0  0  0  0  0  0  0  0  0  0
    0.5661    2.9263    2.7644 C   0  0  0  0  0  0  0  0  0  0  0  0
    0.3432    3.5548    3.9773 C   0  0  0  0  0  0  0  0  0  0  0  0
   -0.0854    4.8825    4.0134 C   0  0  0  0  0  0  0  0  0  0  0  0
   -0.4358    5.5255    2.8271 C   0  0  0  0  0  0  0  0  0  0  0  0
   -0.2644    4.8676    1.6040 C   0  0  0  0  0  0  0  0  0  0  0  0
   -0.1374    5.6124    5.1876 O   0  0  0  0  0  0  0  0  0  0  0  0
    0.7598    5.2416    6.1738 C   0  0  0  0  0  0  0  0  0  0  0  0
    2.1130    5.0076    5.8964 C   0  0  0  0  0  0  0  0  0  0  0  0
    2.9300    4.4270    6.8638 C   0  0  0  0  0  0  0  0  0  0  0  0
    2.4178    4.1582    8.1315 C   0  0  0  0  0  0  0  0  0  0  0  0
    1.0941    4.4838    8.4366 C   0  0  0  0  0  0  0  0  0  0  0  0
    0.2590    5.0236    7.4565 C   0  0  0  0  0  0  0  0  0  0  0  0
    4.5632    1.0589   -0.9468 N   0  0  0  0  0  0  0  0  0  0  0  0
    4.2186   -0.3250   -1.2577 C   0  0  0  0  0  0  0  0  0  0  0  0
    3.4692   -0.9924   -0.0905 C   0  0  3  0  0  0  0  0  0  0  0  0
    4.4104   -1.0192    1.1239 C   0  0  0  0  0  0  0  0  0  0  0  0
    5.1132    0.2999    1.4415 C   0  0  0  0  0  0  0  0  0  0  0  0
    5.4099    1.2398    0.2482 C   0  0  0  0  0  0  0  0  0  0  0  0
    3.9269    2.0464   -1.6897 C   0  0  0  0  0  0  0  0  0  0  0  0
    4.1808    3.4781   -1.3508 C   0  0  0  0  0  0  0  0  0  0  0  0
    3.5474    4.4560   -2.0144 C   0  0  0  0  0  0  0  0  0  0  0  0
    3.1466    1.7833   -2.6111 O   0  0  0  0  0  0  0  0  0  0  0  0
   -1.9729    2.1508    0.6325 H   0  0  0  0  0  0  0  0  0  0  0  0
   -3.8882    0.6326    0.3648 H   0  0  0  0  0  0  0  0  0  0  0  0
   -3.4568   -1.7608   -0.2145 H   0  0  0  0  0  0  0  0  0  0  0  0
    1.4840    3.3073   -0.1472 H   0  0  0  0  0  0  0  0  0  0  0  0
   -0.2196    3.1656   -0.5072 H   0  0  0  0  0  0  0  0  0  0  0  0
    1.0205    1.9408    2.7882 H   0  0  0  0  0  0  0  0  0  0  0  0
    0.5865    3.0092    4.8844 H   0  0  0  0  0  0  0  0  0  0  0  0
   -0.8065    6.5467    2.8488 H   0  0  0  0  0  0  0  0  0  0  0  0
   -0.5086    5.3928    0.6800 H   0  0  0  0  0  0  0  0  0  0  0  0
    2.5114    5.1937    4.9020 H   0  0  0  0  0  0  0  0  0  0  0  0
    3.9530    4.1576    6.6148 H   0  0  0  0  0  0  0  0  0  0  0  0
    3.0505    3.6895    8.8811 H   0  0  0  0  0  0  0  0  0  0  0  0
    0.7045    4.2874    9.4325 H   0  0  0  0  0  0  0  0  0  0  0  0
   -0.7835    5.2289    7.6779 H   0  0  0  0  0  0  0  0  0  0  0  0
    5.1640   -0.8487   -1.4491 H   0  0  0  0  0  0  0  0  0  0  0  0
    3.6234   -0.4061   -2.1723 H   0  0  0  0  0  0  0  0  0  0  0  0
    3.3574   -2.0446   -0.3790 H   0  0  0  0  0  0  0  0  0  0  0  0
    3.8964   -1.4070    2.0110 H   0  0  0  0  0  0  0  0  0  0  0  0
    5.2064   -1.7462    0.9008 H   0  0  0  0  0  0  0  0  0  0  0  0
    4.5150    0.8295    2.1929 H   0  0  0  0  0  0  0  0  0  0  0  0
    6.0537    0.0953    1.9695 H   0  0  0  0  0  0  0  0  0  0  0  0
    5.3462    2.2605    0.6300 H   0  0  0  0  0  0  0  0  0  0  0  0
    6.4411    1.0911   -0.0838 H   0  0  0  0  0  0  0  0  0  0  0  0
    4.8442    3.7366   -0.5460 H   0  0  0  0  0  0  0  0  0  0  0  0
    3.7045    5.4948   -1.7464 H   0  0  0  0  0  0  0  0  0  0  0  0
    2.8580    4.2461   -2.8284 H   0  0  0  0  0  0  0  0  0  0  0  0
  1  2  1  0  0  0  0
  1  6  1  0  0  0  0
  1 11  2  0  0  0  0
  2  3  1  0  0  0  0
  2 13  1  0  0  0  0
  3  4  2  0  0  0  0
  4  5  1  0  0  0  0
  5  6  1  0  0  0  0
  5 12  2  0  0  0  0
  6 29  1  0  0  0  0
  7  8  2  0  0  0  0
  7  3  1  0  0  0  0
  7 37  1  0  0  0  0
  8  9  1  0  0  0  0
  8 38  1  0  0  0  0
  9 10  2  0  0  0  0
  9 39  1  0  0  0  0
 10  4  1  0  0  0  0
 13 14  1  0  0  0  0
 13 40  1  0  0  0  0
 13 41  1  0  0  0  0
 14 15  2  0  0  0  0
 14 19  1  0  0  0  0
 15 16  1  0  0  0  0
 15 42  1  0  0  0  0
 16 17  2  0  0  0  0
 16 43  1  0  0  0  0
 17 18  1  0  0  0  0
 17 20  1  0  0  0  0
 18 19  2  0  0  0  0
 18 44  1  0  0  0  0
 19 45  1  0  0  0  0
 20 21  1  0  0  0  0
 21 22  2  0  0  0  0
 21 26  1  0  0  0  0
 22 23  1  0  0  0  0
 22 46  1  0  0  0  0
 23 24  2  0  0  0  0
 23 47  1  0  0  0  0
 24 25  1  0  0  0  0
 24 48  1  0  0  0  0
 25 26  2  0  0  0  0
 25 49  1  0  0  0  0
 26 50  1  0  0  0  0
 27 28  1  0  0  0  0
 27 32  1  0  0  0  0
 27 33  1  0  0  0  0
 28 29  1  0  0  0  0
 28 51  1  0  0  0  0
 28 52  1  0  0  0  0
 29 30  1  0  0  0  0
 29 53  1  0  0  0  0
 30 31  1  0  0  0  0
 30 54  1  0  0  0  0
 30 55  1  0  0  0  0
 31 32  1  0  0  0  0
 31 56  1  0  0  0  0
 31 57  1  0  0  0  0
 32 58  1  0  0  0  0
 32 59  1  0  0  0  0
 33 34  1  0  0  0  0
 33 36  2  0  0  0  0
 34 35  2  0  0  0  0
 34 60  1  0  0  0  0
 35 61  1  0  0  0  0
 35 62  1  0  0  0  0
M  END
>  <Mol_ID>
7518

>  <Formula>
C28H26N4O4

>  <MolWeight>
482.53044

>  <Cat>
E1332

>  <Name>
EG-011

>  <Target>
others

>  <Form>
free base

>  <CAS>
2377113-41-0

>  <URL>
https://www.selleckchem.com/products/eg-011.html

$$$$
