EHop-016.cdx
 OpenBabel08302519573D

 62 66  0  0  0  0  0  0  0  0999 V2000
    0.0126    1.2234   -0.0212 C   0  0  0  0  0  0  0  0  0  0  0  0
    1.1688    0.5553    0.0367 N   0  0  0  0  0  0  0  0  0  0  0  0
    1.1272   -0.7900    0.0495 C   0  0  0  0  0  0  0  0  0  0  0  0
   -0.0668   -1.4750   -0.0140 C   0  0  0  0  0  0  0  0  0  0  0  0
   -1.2030   -0.7059   -0.0183 C   0  0  0  0  0  0  0  0  0  0  0  0
   -1.1899    0.6383   -0.0182 N   0  0  0  0  0  0  0  0  0  0  0  0
    0.1301    2.6041   -0.0937 N   0  0  0  0  0  0  0  0  0  0  0  0
    2.3261   -1.5343    0.1270 N   0  0  0  0  0  0  0  0  0  0  0  0
   -0.8282    3.3431    0.7032 C   0  0  0  0  0  0  0  0  0  0  0  0
   -0.2098    4.6284    1.2686 C   0  0  0  0  0  0  0  0  0  0  0  0
    0.8290    4.3305    2.3632 C   0  0  0  0  0  0  0  0  0  0  0  0
    1.9195    4.5865    5.2615 C   0  0  0  0  0  0  0  0  0  0  0  0
    2.4850    5.1535    3.9445 C   0  0  0  0  0  0  0  0  0  0  0  0
    1.4414    5.5338    2.9578 N   0  0  0  0  0  0  0  0  0  0  0  0
    0.4829    6.4155    3.6587 C   0  0  0  0  0  0  0  0  0  0  0  0
   -0.0867    5.7981    4.9448 C   0  0  0  0  0  0  0  0  0  0  0  0
    0.9607    5.4669    5.8631 O   0  0  0  0  0  0  0  0  0  0  0  0
    6.8301    0.1039    2.9707 N   0  0  0  0  0  0  0  0  0  0  0  0
    5.8590   -0.3986    2.1250 C   0  0  0  0  0  0  0  0  0  0  0  0
    5.9476   -1.1808    0.9620 C   0  0  0  0  0  0  0  0  0  0  0  0
    4.7583   -1.5405    0.3101 C   0  0  0  0  0  0  0  0  0  0  0  0
    3.5108   -1.1142    0.7712 C   0  0  0  0  0  0  0  0  0  0  0  0
    3.4531   -0.3533    1.9505 C   0  0  0  0  0  0  0  0  0  0  0  0
    4.6291    0.0106    2.6375 C   0  0  0  0  0  0  0  0  0  0  0  0
    4.8757    0.7400    3.8405 C   0  0  0  0  0  0  0  0  0  0  0  0
    4.0357    1.3584    4.7911 C   0  0  0  0  0  0  0  0  0  0  0  0
    4.5988    1.9964    5.9002 C   0  0  0  0  0  0  0  0  0  0  0  0
    5.9784    2.0333    6.0671 C   0  0  0  0  0  0  0  0  0  0  0  0
    6.8311    1.4284    5.1393 C   0  0  0  0  0  0  0  0  0  0  0  0
    6.2569    0.7840    4.0301 C   0  0  0  0  0  0  0  0  0  0  0  0
    8.2631   -0.0510    2.7734 C   0  0  0  0  0  0  0  0  0  0  0  0
    8.8079   -1.2972    3.4484 C   0  0  0  0  0  0  0  0  0  0  0  0
   -0.1109   -2.5559   -0.0029 H   0  0  0  0  0  0  0  0  0  0  0  0
   -2.1888   -1.1605   -0.0161 H   0  0  0  0  0  0  0  0  0  0  0  0
    1.1147    2.8028    0.0631 H   0  0  0  0  0  0  0  0  0  0  0  0
    2.4893   -2.0222   -0.7471 H   0  0  0  0  0  0  0  0  0  0  0  0
   -1.6745    3.6170    0.0591 H   0  0  0  0  0  0  0  0  0  0  0  0
   -1.2318    2.7543    1.5366 H   0  0  0  0  0  0  0  0  0  0  0  0
    0.2468    5.2204    0.4662 H   0  0  0  0  0  0  0  0  0  0  0  0
   -1.0315    5.2203    1.6858 H   0  0  0  0  0  0  0  0  0  0  0  0
    0.3705    3.6900    3.1244 H   0  0  0  0  0  0  0  0  0  0  0  0
    1.6367    3.7414    1.9119 H   0  0  0  0  0  0  0  0  0  0  0  0
    1.4580    3.6040    5.1139 H   0  0  0  0  0  0  0  0  0  0  0  0
    2.7326    4.4612    5.9819 H   0  0  0  0  0  0  0  0  0  0  0  0
    3.0617    6.0579    4.1782 H   0  0  0  0  0  0  0  0  0  0  0  0
    3.1977    4.4469    3.5023 H   0  0  0  0  0  0  0  0  0  0  0  0
    1.0217    7.3340    3.9283 H   0  0  0  0  0  0  0  0  0  0  0  0
   -0.3237    6.7389    2.9954 H   0  0  0  0  0  0  0  0  0  0  0  0
   -0.7416    6.5212    5.4408 H   0  0  0  0  0  0  0  0  0  0  0  0
   -0.6872    4.9041    4.7382 H   0  0  0  0  0  0  0  0  0  0  0  0
    6.9042   -1.5144    0.5725 H   0  0  0  0  0  0  0  0  0  0  0  0
    4.8279   -2.1576   -0.5822 H   0  0  0  0  0  0  0  0  0  0  0  0
    2.4930   -0.0497    2.3567 H   0  0  0  0  0  0  0  0  0  0  0  0
    2.9571    1.3264    4.6675 H   0  0  0  0  0  0  0  0  0  0  0  0
    3.9534    2.4603    6.6412 H   0  0  0  0  0  0  0  0  0  0  0  0
    6.4012    2.5347    6.9347 H   0  0  0  0  0  0  0  0  0  0  0  0
    7.9055    1.4562    5.2889 H   0  0  0  0  0  0  0  0  0  0  0  0
    8.4593   -0.0755    1.6965 H   0  0  0  0  0  0  0  0  0  0  0  0
    8.7573    0.8456    3.1619 H   0  0  0  0  0  0  0  0  0  0  0  0
    8.3697   -2.2032    3.0169 H   0  0  0  0  0  0  0  0  0  0  0  0
    9.8937   -1.3512    3.3230 H   0  0  0  0  0  0  0  0  0  0  0  0
    8.5878   -1.2986    4.5211 H   0  0  0  0  0  0  0  0  0  0  0  0
  1  2  2  0  0  0  0
  1  6  1  0  0  0  0
  1  7  1  0  0  0  0
  2  3  1  0  0  0  0
  3  4  2  0  0  0  0
  3  8  1  0  0  0  0
  4  5  1  0  0  0  0
  4 33  1  0  0  0  0
  5  6  2  0  0  0  0
  5 34  1  0  0  0  0
  7  9  1  0  0  0  0
  7 35  1  0  0  0  0
  8 22  1  0  0  0  0
  8 36  1  0  0  0  0
  9 10  1  0  0  0  0
  9 37  1  0  0  0  0
  9 38  1  0  0  0  0
 10 11  1  0  0  0  0
 10 39  1  0  0  0  0
 10 40  1  0  0  0  0
 11 14  1  0  0  0  0
 11 41  1  0  0  0  0
 11 42  1  0  0  0  0
 12 13  1  0  0  0  0
 12 17  1  0  0  0  0
 12 43  1  0  0  0  0
 12 44  1  0  0  0  0
 13 14  1  0  0  0  0
 13 45  1  0  0  0  0
 13 46  1  0  0  0  0
 14 15  1  0  0  0  0
 15 16  1  0  0  0  0
 15 47  1  0  0  0  0
 15 48  1  0  0  0  0
 16 17  1  0  0  0  0
 16 49  1  0  0  0  0
 16 50  1  0  0  0  0
 18 19  1  0  0  0  0
 18 30  1  0  0  0  0
 18 31  1  0  0  0  0
 19 20  2  0  0  0  0
 19 24  1  0  0  0  0
 20 21  1  0  0  0  0
 20 51  1  0  0  0  0
 21 22  2  0  0  0  0
 21 52  1  0  0  0  0
 22 23  1  0  0  0  0
 23 24  2  0  0  0  0
 23 53  1  0  0  0  0
 24 25  1  0  0  0  0
 25 26  1  0  0  0  0
 25 30  2  0  0  0  0
 26 27  2  0  0  0  0
 26 54  1  0  0  0  0
 27 28  1  0  0  0  0
 27 55  1  0  0  0  0
 28 29  2  0  0  0  0
 28 56  1  0  0  0  0
 29 30  1  0  0  0  0
 29 57  1  0  0  0  0
 31 32  1  0  0  0  0
 31 58  1  0  0  0  0
 31 59  1  0  0  0  0
 32 60  1  0  0  0  0
 32 61  1  0  0  0  0
 32 62  1  0  0  0  0
M  END
>  <Mol_ID>
2268

>  <Formula>
C25H30N6O

>  <MolWeight>
430.5453

>  <Cat>
S7319

>  <Name>
EHop-016

>  <Synonyms>
N/A

>  <Target>
Rho

>  <Form>
free base

>  <CAS>
1380432-32-5

>  <URL>
http://selleckchem.com/products/ehop-016.html

$$$$
