Eliprodil (SL-820715)
 OpenBabel08302521353D

 47 49  0  0  0  0  0  0  0  0999 V2000
    0.8375    2.3531    0.5653 C   0  0  3  0  0  0  0  0  0  0  0  0
    0.3614    1.3526   -0.5310 C   0  0  0  0  0  0  0  0  0  0  0  0
    2.2629    2.4107    0.6285 O   0  0  0  0  0  0  0  0  0  0  0  0
    1.0895    2.2608   -6.2207 C   0  0  0  0  0  0  0  0  0  0  0  0
   -0.7893   -1.9832   -9.4095 F   0  0  0  0  0  0  0  0  0  0  0  0
    0.3341    1.9982    1.9465 C   0  0  0  0  0  0  0  0  0  0  0  0
    0.6803    0.7837    2.5644 C   0  0  0  0  0  0  0  0  0  0  0  0
   -0.4607    2.9115    2.6573 C   0  0  0  0  0  0  0  0  0  0  0  0
    0.2334    0.4915    3.8518 C   0  0  0  0  0  0  0  0  0  0  0  0
   -0.8991    2.6207    3.9490 C   0  0  0  0  0  0  0  0  0  0  0  0
   -0.5523    1.4107    4.5467 C   0  0  0  0  0  0  0  0  0  0  0  0
    0.8570    1.6188   -1.9080 N   0  0  0  0  0  0  0  0  0  0  0  0
    0.3980    0.5293   -2.7884 C   0  0  0  0  0  0  0  0  0  0  0  0
    0.4112    2.9189   -2.4321 C   0  0  0  0  0  0  0  0  0  0  0  0
    0.9240    0.6914   -4.2123 C   0  0  0  0  0  0  0  0  0  0  0  0
    0.9454    3.1625   -3.8496 C   0  0  0  0  0  0  0  0  0  0  0  0
    0.5119    2.0465   -4.8057 C   0  0  3  0  0  0  0  0  0  0  0  0
    0.6092    1.1973   -7.1840 C   0  0  0  0  0  0  0  0  0  0  0  0
   -0.7545    1.0986   -7.5023 C   0  0  0  0  0  0  0  0  0  0  0  0
    1.5020    0.2363   -7.6828 C   0  0  0  0  0  0  0  0  0  0  0  0
   -1.2256    0.0252   -8.2565 C   0  0  0  0  0  0  0  0  0  0  0  0
    1.0289   -0.8312   -8.4461 C   0  0  0  0  0  0  0  0  0  0  0  0
   -0.3313   -0.9349   -8.7134 C   0  0  0  0  0  0  0  0  0  0  0  0
    0.4873    3.3615    0.3161 H   0  0  0  0  0  0  0  0  0  0  0  0
    0.7148    0.3550   -0.2517 H   0  0  0  0  0  0  0  0  0  0  0  0
   -0.7381    1.3174   -0.5266 H   0  0  0  0  0  0  0  0  0  0  0  0
    2.5487    2.7774   -0.2264 H   0  0  0  0  0  0  0  0  0  0  0  0
    0.7897    3.2430   -6.6080 H   0  0  0  0  0  0  0  0  0  0  0  0
    2.1864    2.2696   -6.1822 H   0  0  0  0  0  0  0  0  0  0  0  0
    1.3205    0.0766    2.0552 H   0  0  0  0  0  0  0  0  0  0  0  0
   -0.7277    3.8687    2.2138 H   0  0  0  0  0  0  0  0  0  0  0  0
    0.5153   -0.4479    4.3254 H   0  0  0  0  0  0  0  0  0  0  0  0
   -1.4990    3.3440    4.4939 H   0  0  0  0  0  0  0  0  0  0  0  0
   -0.8829    1.1904    5.5589 H   0  0  0  0  0  0  0  0  0  0  0  0
   -0.7012    0.4833   -2.8137 H   0  0  0  0  0  0  0  0  0  0  0  0
    0.7502   -0.4384   -2.4102 H   0  0  0  0  0  0  0  0  0  0  0  0
    0.7931    3.7307   -1.8046 H   0  0  0  0  0  0  0  0  0  0  0  0
   -0.6839    2.9867   -2.4311 H   0  0  0  0  0  0  0  0  0  0  0  0
    0.5290   -0.1314   -4.8192 H   0  0  0  0  0  0  0  0  0  0  0  0
    2.0171    0.5948   -4.2156 H   0  0  0  0  0  0  0  0  0  0  0  0
    2.0405    3.2294   -3.8211 H   0  0  0  0  0  0  0  0  0  0  0  0
    0.5763    4.1295   -4.2126 H   0  0  0  0  0  0  0  0  0  0  0  0
   -0.5849    2.0729   -4.8652 H   0  0  0  0  0  0  0  0  0  0  0  0
   -1.4610    1.8367   -7.1297 H   0  0  0  0  0  0  0  0  0  0  0  0
    2.5627    0.2928   -7.4481 H   0  0  0  0  0  0  0  0  0  0  0  0
   -2.2841   -0.0789   -8.4721 H   0  0  0  0  0  0  0  0  0  0  0  0
    1.7077   -1.5937   -8.8141 H   0  0  0  0  0  0  0  0  0  0  0  0
  1  2  1  0  0  0  0
  1  3  1  0  0  0  0
  1  6  1  0  0  0  0
  1 24  1  0  0  0  0
  2 12  1  0  0  0  0
  2 25  1  0  0  0  0
  2 26  1  0  0  0  0
  3 27  1  0  0  0  0
  4 17  1  0  0  0  0
  4 18  1  0  0  0  0
  4 28  1  0  0  0  0
  4 29  1  0  0  0  0
  5 23  1  0  0  0  0
  6  7  2  0  0  0  0
  6  8  1  0  0  0  0
  7  9  1  0  0  0  0
  7 30  1  0  0  0  0
  8 10  2  0  0  0  0
  8 31  1  0  0  0  0
  9 11  2  0  0  0  0
  9 32  1  0  0  0  0
 10 11  1  0  0  0  0
 10 33  1  0  0  0  0
 11 34  1  0  0  0  0
 12 13  1  0  0  0  0
 12 14  1  0  0  0  0
 13 15  1  0  0  0  0
 13 35  1  0  0  0  0
 13 36  1  0  0  0  0
 14 16  1  0  0  0  0
 14 37  1  0  0  0  0
 14 38  1  0  0  0  0
 15 17  1  0  0  0  0
 15 39  1  0  0  0  0
 15 40  1  0  0  0  0
 16 17  1  0  0  0  0
 16 41  1  0  0  0  0
 16 42  1  0  0  0  0
 17 43  1  0  0  0  0
 18 19  2  0  0  0  0
 18 20  1  0  0  0  0
 19 21  1  0  0  0  0
 19 44  1  0  0  0  0
 20 22  2  0  0  0  0
 20 45  1  0  0  0  0
 21 23  2  0  0  0  0
 21 46  1  0  0  0  0
 22 23  1  0  0  0  0
 22 47  1  0  0  0  0
M  END
>  <Mol_ID>
6701

>  <Formula>
C20H23ClFNO

>  <MolWeight>
347.8541232

>  <Cat>
S6731

>  <Name>
Eliprodil (SL-820715)

>  <Synonyms>
N/A

>  <Target>
NMDAR

>  <Form>
Free base

>  <CAS>
119431-25-3

>  <URL>
http://www.selleckchem.com/products/eliprodil.html

$$$$
