Ellipticine hydrochloride
 OpenBabel08302521243D

 33 36  0  0  0  0  0  0  0  0999 V2000
   -1.4065   -1.6902   -0.0002 N   0  0  0  0  0  0  0  0  0  0  0  0
    4.4483    1.0275    0.0032 N   0  0  0  0  0  0  0  0  0  0  0  0
   -0.4260    0.3074    0.0023 C   0  0  0  0  0  0  0  0  0  0  0  0
   -0.1771   -1.0629    0.0008 C   0  0  0  0  0  0  0  0  0  0  0  0
    0.6724    1.2138    0.0042 C   0  0  0  0  0  0  0  0  0  0  0  0
   -1.8612    0.4804    0.0012 C   0  0  0  0  0  0  0  0  0  0  0  0
    1.1147   -1.6262    0.0003 C   0  0  0  0  0  0  0  0  0  0  0  0
    2.2163   -0.7229    0.0012 C   0  0  0  0  0  0  0  0  0  0  0  0
    2.0028    0.6780    0.0031 C   0  0  0  0  0  0  0  0  0  0  0  0
   -2.4375   -0.7868    0.0001 C   0  0  0  0  0  0  0  0  0  0  0  0
    0.4065    2.6992    0.0074 C   0  0  0  0  0  0  0  0  0  0  0  0
   -2.7298    1.5954    0.0011 C   0  0  0  0  0  0  0  0  0  0  0  0
    1.3307   -3.1194   -0.0010 C   0  0  0  0  0  0  0  0  0  0  0  0
   -3.8224   -1.0000   -0.0008 C   0  0  0  0  0  0  0  0  0  0  0  0
    3.5483   -1.1908   -0.0000 C   0  0  0  0  0  0  0  0  0  0  0  0
    3.1682    1.4723    0.0042 C   0  0  0  0  0  0  0  0  0  0  0  0
   -4.1163    1.4056    0.0001 C   0  0  0  0  0  0  0  0  0  0  0  0
   -4.6531    0.1233   -0.0006 C   0  0  0  0  0  0  0  0  0  0  0  0
    4.6066   -0.3000    0.0011 C   0  0  0  0  0  0  0  0  0  0  0  0
   -1.5377   -2.6894   -0.0014 H   0  0  0  0  0  0  0  0  0  0  0  0
   -0.1667    2.9707   -0.8852 H   0  0  0  0  0  0  0  0  0  0  0  0
   -0.1653    2.9668    0.9023 H   0  0  0  0  0  0  0  0  0  0  0  0
    1.2963    3.3270    0.0079 H   0  0  0  0  0  0  0  0  0  0  0  0
   -2.3400    2.6072    0.0015 H   0  0  0  0  0  0  0  0  0  0  0  0
    1.8848   -3.4220   -0.8957 H   0  0  0  0  0  0  0  0  0  0  0  0
    1.8847   -3.4235    0.8932 H   0  0  0  0  0  0  0  0  0  0  0  0
    0.3896   -3.6760   -0.0015 H   0  0  0  0  0  0  0  0  0  0  0  0
   -4.2441   -1.9997   -0.0016 H   0  0  0  0  0  0  0  0  0  0  0  0
    3.7827   -2.2497   -0.0015 H   0  0  0  0  0  0  0  0  0  0  0  0
    3.1234    2.5559    0.0063 H   0  0  0  0  0  0  0  0  0  0  0  0
   -4.7753    2.2705   -0.0001 H   0  0  0  0  0  0  0  0  0  0  0  0
   -5.7328   -0.0066   -0.0011 H   0  0  0  0  0  0  0  0  0  0  0  0
    5.6349   -0.6485   -0.0002 H   0  0  0  0  0  0  0  0  0  0  0  0
  1  4  1  0  0  0  0
  1 10  1  0  0  0  0
  1 20  1  0  0  0  0
  2 16  2  0  0  0  0
  2 19  1  0  0  0  0
  3  4  2  0  0  0  0
  3  5  1  0  0  0  0
  3  6  1  0  0  0  0
  4  7  1  0  0  0  0
  5  9  2  0  0  0  0
  5 11  1  0  0  0  0
  6 10  2  0  0  0  0
  6 12  1  0  0  0  0
  7  8  2  0  0  0  0
  7 13  1  0  0  0  0
  8  9  1  0  0  0  0
  8 15  1  0  0  0  0
  9 16  1  0  0  0  0
 10 14  1  0  0  0  0
 11 21  1  0  0  0  0
 11 22  1  0  0  0  0
 11 23  1  0  0  0  0
 12 17  2  0  0  0  0
 12 24  1  0  0  0  0
 13 25  1  0  0  0  0
 13 26  1  0  0  0  0
 13 27  1  0  0  0  0
 14 18  2  0  0  0  0
 14 28  1  0  0  0  0
 15 19  2  0  0  0  0
 15 29  1  0  0  0  0
 16 30  1  0  0  0  0
 17 18  1  0  0  0  0
 17 31  1  0  0  0  0
 18 32  1  0  0  0  0
 19 33  1  0  0  0  0
M  END
>  <Mol_ID>
5003

>  <Formula>
C17H15ClN2

>  <MolWeight>
282.7674

>  <Cat>
S6790

>  <Name>
Ellipticine hydrochloride

>  <Synonyms>
NSC 71795 hydrochloride, PZE

>  <Target>
Others,P450 (e.g. CYP17),Topoisomerase

>  <Form>
Hydrochloride

>  <CAS>
5081-48-1

>  <URL>
http://www.selleckchem.com/products/ellipticine-hydrochloride.html

$$$$
