EMD638683
 OpenBabel08302521263D

 44 45  0  0  0  0  0  0  0  0999 V2000
   -0.4397    0.6155   -0.0922 C   0  0  0  0  0  0  0  0  0  0  0  0
    0.6134    1.0297   -0.8972 C   0  0  0  0  0  0  0  0  0  0  0  0
    1.8481    0.3986   -0.8042 C   0  0  0  0  0  0  0  0  0  0  0  0
    2.0458   -0.6556    0.1036 C   0  0  0  0  0  0  0  0  0  0  0  0
    0.9668   -1.1022    0.9208 C   0  0  0  0  0  0  0  0  0  0  0  0
   -0.2988   -0.4467    0.8213 C   0  0  0  0  0  0  0  0  0  0  0  0
   -1.6075    1.3060   -0.2704 O   0  0  0  0  0  0  0  0  0  0  0  0
   -1.4955   -0.8422    1.6534 C   0  0  0  0  0  0  0  0  0  0  0  0
    1.1545   -2.2825    1.8588 C   0  0  0  0  0  0  0  0  0  0  0  0
    0.7693   -3.5969    1.1901 C   0  0  0  0  0  0  0  0  0  0  0  0
    3.4046   -1.2989    0.1211 C   0  0  0  0  0  0  0  0  0  0  0  0
    4.4824   -0.4515   -0.0747 N   0  0  0  0  0  0  0  0  0  0  0  0
    3.5666   -2.5043    0.2878 O   0  0  0  0  0  0  0  0  0  0  0  0
    5.7717   -1.0062   -0.0488 N   0  0  0  0  0  0  0  0  0  0  0  0
    6.8241   -0.1928    0.3267 C   0  0  0  0  0  0  0  0  0  0  0  0
    8.2080   -0.8807    0.3471 C   0  0  3  0  0  0  0  0  0  0  0  0
    6.6816    1.0083    0.5719 O   0  0  0  0  0  0  0  0  0  0  0  0
    8.9311   -0.8137   -0.9861 C   0  0  0  0  0  0  0  0  0  0  0  0
    9.0658   -0.2893    1.3174 O   0  0  0  0  0  0  0  0  0  0  0  0
    8.7520    0.2528   -1.8833 C   0  0  0  0  0  0  0  0  0  0  0  0
    9.4523    0.2897   -3.0886 C   0  0  0  0  0  0  0  0  0  0  0  0
   10.3549   -0.7069   -3.4256 C   0  0  0  0  0  0  0  0  0  0  0  0
   10.5626   -1.7442   -2.5302 C   0  0  0  0  0  0  0  0  0  0  0  0
    9.8666   -1.8078   -1.3208 C   0  0  0  0  0  0  0  0  0  0  0  0
   11.4434   -2.7078   -2.8302 F   0  0  0  0  0  0  0  0  0  0  0  0
    9.2519    1.3117   -3.9300 F   0  0  0  0  0  0  0  0  0  0  0  0
    0.4640    1.8382   -1.6090 H   0  0  0  0  0  0  0  0  0  0  0  0
    2.6383    0.7214   -1.4773 H   0  0  0  0  0  0  0  0  0  0  0  0
   -2.2964    0.9603    0.3164 H   0  0  0  0  0  0  0  0  0  0  0  0
   -1.8025    0.0011    2.2827 H   0  0  0  0  0  0  0  0  0  0  0  0
   -2.3280   -1.1245    0.9996 H   0  0  0  0  0  0  0  0  0  0  0  0
   -1.3282   -1.6896    2.3178 H   0  0  0  0  0  0  0  0  0  0  0  0
    2.1841   -2.3275    2.2282 H   0  0  0  0  0  0  0  0  0  0  0  0
    0.5735   -2.1461    2.7764 H   0  0  0  0  0  0  0  0  0  0  0  0
    1.3601   -3.7815    0.2871 H   0  0  0  0  0  0  0  0  0  0  0  0
    0.9335   -4.4336    1.8757 H   0  0  0  0  0  0  0  0  0  0  0  0
   -0.2851   -3.6027    0.8942 H   0  0  0  0  0  0  0  0  0  0  0  0
    4.4185    0.5650   -0.0588 H   0  0  0  0  0  0  0  0  0  0  0  0
    5.8081   -2.0235    0.0300 H   0  0  0  0  0  0  0  0  0  0  0  0
    8.0612   -1.9278    0.6370 H   0  0  0  0  0  0  0  0  0  0  0  0
    8.9932    0.6757    1.1887 H   0  0  0  0  0  0  0  0  0  0  0  0
    8.0748    1.0759   -1.6669 H   0  0  0  0  0  0  0  0  0  0  0  0
   10.8959   -0.6661   -4.3631 H   0  0  0  0  0  0  0  0  0  0  0  0
   10.0787   -2.6292   -0.6410 H   0  0  0  0  0  0  0  0  0  0  0  0
  1  2  2  0  0  0  0
  1  7  1  0  0  0  0
  2  3  1  0  0  0  0
  2 27  1  0  0  0  0
  3  4  2  0  0  0  0
  3 28  1  0  0  0  0
  4  5  1  0  0  0  0
  4 11  1  0  0  0  0
  5  6  2  0  0  0  0
  5  9  1  0  0  0  0
  6  1  1  0  0  0  0
  6  8  1  0  0  0  0
  7 29  1  0  0  0  0
  8 30  1  0  0  0  0
  8 31  1  0  0  0  0
  8 32  1  0  0  0  0
  9 10  1  0  0  0  0
  9 33  1  0  0  0  0
  9 34  1  0  0  0  0
 10 35  1  0  0  0  0
 10 36  1  0  0  0  0
 10 37  1  0  0  0  0
 11 12  1  0  0  0  0
 11 13  2  0  0  0  0
 12 14  1  0  0  0  0
 12 38  1  0  0  0  0
 14 15  1  0  0  0  0
 14 39  1  0  0  0  0
 15 16  1  0  0  0  0
 15 17  2  0  0  0  0
 16 18  1  0  0  0  0
 16 19  1  0  0  0  0
 16 40  1  0  0  0  0
 18 20  2  0  0  0  0
 19 41  1  0  0  0  0
 20 21  1  0  0  0  0
 20 42  1  0  0  0  0
 21 22  2  0  0  0  0
 21 26  1  0  0  0  0
 22 23  1  0  0  0  0
 22 43  1  0  0  0  0
 23 24  2  0  0  0  0
 23 25  1  0  0  0  0
 24 18  1  0  0  0  0
 24 44  1  0  0  0  0
M  END
>  <Mol_ID>
5220

>  <Formula>
C18H18F2N2O4

>  <MolWeight>
364.3433264

>  <Cat>
S8824

>  <Name>
EMD638683

>  <Synonyms>
N/A

>  <Target>
SGK

>  <Form>
free base

>  <CAS>
1181770-72-8

>  <URL>
http://www.selleckchem.com/products/emd638683.html

$$$$
