Empagliflozin (BI10773).cdx
 OpenBabel08302520413D

 58 61  0  0  0  0  0  0  0  0999 V2000
   14.1289    6.6052  -12.4135 C   0  0  2  0  0  0  0  0  0  0  0  0
   12.7914    6.8312  -13.1256 C   0  0  2  0  0  0  0  0  0  0  0  0
   11.7894    5.7478  -12.7046 C   0  0  1  0  0  0  0  0  0  0  0  0
   11.6755    5.6381  -11.1730 C   0  0  2  0  0  0  0  0  0  0  0  0
   13.0838    5.4919  -10.5587 C   0  0  1  0  0  0  0  0  0  0  0  0
   13.9439    6.5592  -10.9926 O   0  0  0  0  0  0  0  0  0  0  0  0
   13.0522    5.5114   -9.0403 C   0  0  0  0  0  0  0  0  0  0  0  0
   13.1465    6.7177   -8.3275 C   0  0  0  0  0  0  0  0  0  0  0  0
   13.1638    6.7405   -6.9244 C   0  0  0  0  0  0  0  0  0  0  0  0
   13.0942    5.5300   -6.2280 C   0  0  0  0  0  0  0  0  0  0  0  0
   12.9557    4.3283   -6.9180 C   0  0  0  0  0  0  0  0  0  0  0  0
   12.9248    4.3180   -8.3160 C   0  0  0  0  0  0  0  0  0  0  0  0
   13.2990    8.0536   -6.1896 C   0  0  0  0  0  0  0  0  0  0  0  0
   14.7339    8.5055   -6.0537 C   0  0  0  0  0  0  0  0  0  0  0  0
   15.3279    9.2374   -7.0880 C   0  0  0  0  0  0  0  0  0  0  0  0
   16.6748    9.5835   -7.0299 C   0  0  0  0  0  0  0  0  0  0  0  0
   17.4380    9.2592   -5.9101 C   0  0  0  0  0  0  0  0  0  0  0  0
   16.8534    8.5254   -4.8741 C   0  0  0  0  0  0  0  0  0  0  0  0
   15.5097    8.1469   -4.9443 C   0  0  0  0  0  0  0  0  0  0  0  0
   18.7506    9.6040   -5.7342 O   0  0  0  0  0  0  0  0  0  0  0  0
   19.1838   10.7765   -6.4199 C   0  0  1  0  0  0  0  0  0  0  0  0
   18.4856   12.0421   -5.9613 C   0  0  0  0  0  0  0  0  0  0  0  0
   19.4811   13.1130   -6.3220 C   0  0  0  0  0  0  0  0  0  0  0  0
   20.7854   12.5303   -6.1990 O   0  0  0  0  0  0  0  0  0  0  0  0
   20.6283   11.1061   -6.0643 C   0  0  0  0  0  0  0  0  0  0  0  0
   15.1117    7.7439  -12.7136 C   0  0  0  0  0  0  0  0  0  0  0  0
   10.5042    6.0035  -13.2985 O   0  0  0  0  0  0  0  0  0  0  0  0
   12.9846    6.8504  -14.5415 O   0  0  0  0  0  0  0  0  0  0  0  0
   10.8231    4.5380  -10.8290 O   0  0  0  0  0  0  0  0  0  0  0  0
   16.3440    7.5115  -12.0286 O   0  0  0  0  0  0  0  0  0  0  0  0
   14.5911    5.6618  -12.7334 H   0  0  0  0  0  0  0  0  0  0  0  0
   12.3807    7.8124  -12.8521 H   0  0  0  0  0  0  0  0  0  0  0  0
   12.0994    4.7811  -13.1215 H   0  0  0  0  0  0  0  0  0  0  0  0
   11.1855    6.5419  -10.7887 H   0  0  0  0  0  0  0  0  0  0  0  0
   13.5371    4.5419  -10.8732 H   0  0  0  0  0  0  0  0  0  0  0  0
   13.2278    7.6555   -8.8754 H   0  0  0  0  0  0  0  0  0  0  0  0
   13.1456    5.5169   -5.1419 H   0  0  0  0  0  0  0  0  0  0  0  0
   12.8747    3.3941   -6.3701 H   0  0  0  0  0  0  0  0  0  0  0  0
   12.8063    3.3692   -8.8316 H   0  0  0  0  0  0  0  0  0  0  0  0
   12.7250    8.8246   -6.7223 H   0  0  0  0  0  0  0  0  0  0  0  0
   12.8266    7.9885   -5.2009 H   0  0  0  0  0  0  0  0  0  0  0  0
   14.7475    9.5296   -7.9602 H   0  0  0  0  0  0  0  0  0  0  0  0
   17.0999   10.1092   -7.8788 H   0  0  0  0  0  0  0  0  0  0  0  0
   17.4464    8.2522   -4.0039 H   0  0  0  0  0  0  0  0  0  0  0  0
   15.0779    7.5666   -4.1329 H   0  0  0  0  0  0  0  0  0  0  0  0
   19.1286   10.6493   -7.5081 H   0  0  0  0  0  0  0  0  0  0  0  0
   18.3182   12.0098   -4.8760 H   0  0  0  0  0  0  0  0  0  0  0  0
   17.5109   12.2069   -6.4320 H   0  0  0  0  0  0  0  0  0  0  0  0
   19.3539   13.4338   -7.3622 H   0  0  0  0  0  0  0  0  0  0  0  0
   19.4016   13.9888   -5.6749 H   0  0  0  0  0  0  0  0  0  0  0  0
   20.8751   10.8239   -5.0354 H   0  0  0  0  0  0  0  0  0  0  0  0
   21.3371   10.6035   -6.7292 H   0  0  0  0  0  0  0  0  0  0  0  0
   15.3280    7.8197  -13.7834 H   0  0  0  0  0  0  0  0  0  0  0  0
   14.7213    8.7049  -12.3628 H   0  0  0  0  0  0  0  0  0  0  0  0
   10.0847    6.7358  -12.8178 H   0  0  0  0  0  0  0  0  0  0  0  0
   12.9800    5.9358  -14.8741 H   0  0  0  0  0  0  0  0  0  0  0  0
   11.1094    3.7486  -11.3197 H   0  0  0  0  0  0  0  0  0  0  0  0
   16.1008    7.3357  -11.0986 H   0  0  0  0  0  0  0  0  0  0  0  0
  1  2  1  0  0  0  0
  1 26  1  0  0  0  0
  1 31  1  6  0  0  0
  2  3  1  0  0  0  0
  2 28  1  0  0  0  0
  2 32  1  1  0  0  0
  3  4  1  0  0  0  0
  3 27  1  0  0  0  0
  3 33  1  6  0  0  0
  4  5  1  0  0  0  0
  4 29  1  0  0  0  0
  4 34  1  1  0  0  0
  5  6  1  0  0  0  0
  5  7  1  0  0  0  0
  5 35  1  6  0  0  0
  6  1  1  0  0  0  0
  7  8  2  0  0  0  0
  8  9  1  0  0  0  0
  8 36  1  0  0  0  0
  9 10  2  0  0  0  0
  9 13  1  0  0  0  0
 10 11  1  0  0  0  0
 10 37  1  0  0  0  0
 11 12  2  0  0  0  0
 11 38  1  0  0  0  0
 12  7  1  0  0  0  0
 12 39  1  0  0  0  0
 13 14  1  0  0  0  0
 13 40  1  0  0  0  0
 13 41  1  0  0  0  0
 14 15  2  0  0  0  0
 15 16  1  0  0  0  0
 15 42  1  0  0  0  0
 16 17  2  0  0  0  0
 16 43  1  0  0  0  0
 17 18  1  0  0  0  0
 17 20  1  0  0  0  0
 18 19  2  0  0  0  0
 18 44  1  0  0  0  0
 19 14  1  0  0  0  0
 19 45  1  0  0  0  0
 21 22  1  0  0  0  0
 21 46  1  6  0  0  0
 21 20  1  0  0  0  0
 22 23  1  0  0  0  0
 22 47  1  0  0  0  0
 22 48  1  0  0  0  0
 23 24  1  0  0  0  0
 23 49  1  0  0  0  0
 23 50  1  0  0  0  0
 24 25  1  0  0  0  0
 25 21  1  0  0  0  0
 25 51  1  0  0  0  0
 25 52  1  0  0  0  0
 26 30  1  0  0  0  0
 26 53  1  0  0  0  0
 26 54  1  0  0  0  0
 27 55  1  0  0  0  0
 28 56  1  0  0  0  0
 29 57  1  0  0  0  0
 30 58  1  0  0  0  0
M  END
>  <Mol_ID>
3878

>  <Formula>
C23H27ClO7

>  <MolWeight>
450.90928

>  <Cat>
S8022

>  <Name>
Empagliflozin (BI 10773)

>  <Synonyms>
N/A

>  <Target>
SGLT

>  <Form>
free base

>  <CAS>
864070-44-0

>  <URL>
http://selleckchem.com/products/empagliflozin-bi10773.html

$$$$
