EN6
 OpenBabel08302521233D

 41 43  0  0  0  0  0  0  0  0999 V2000
    7.3355    7.3191   -1.7165 F   0  0  0  0  0  0  0  0  0  0  0  0
    3.1189   -0.7987   -4.3616 F   0  0  0  0  0  0  0  0  0  0  0  0
    2.5816    4.0073   -0.7965 O   0  0  0  0  0  0  0  0  0  0  0  0
   -0.0780   -0.3773   -0.9228 O   0  0  0  0  0  0  0  0  0  0  0  0
    5.1923    7.6365   -0.0001 N   0  0  0  0  0  0  0  0  0  0  0  0
    3.9080    4.2935   -2.6037 N   0  0  0  0  0  0  0  0  0  0  0  0
    4.4143    7.3563    1.0703 N   0  0  0  0  0  0  0  0  0  0  0  0
    1.4048    0.3472   -2.4029 N   0  0  0  0  0  0  0  0  0  0  0  0
    3.9073    5.9308   -0.6803 C   0  0  0  0  0  0  0  0  0  0  0  0
    6.2795    8.5415    0.0358 C   0  0  0  0  0  0  0  0  0  0  0  0
    4.8307    6.8653   -1.0888 C   0  0  0  0  0  0  0  0  0  0  0  0
    3.5579    3.1391   -3.3448 C   0  0  0  0  0  0  0  0  0  0  0  0
    3.4189    4.7084   -1.3532 C   0  0  0  0  0  0  0  0  0  0  0  0
    3.5714    6.4124    0.6197 C   0  0  0  0  0  0  0  0  0  0  0  0
    2.3678    2.4776   -3.0861 C   0  0  0  0  0  0  0  0  0  0  0  0
    2.2753    1.1123   -3.2142 C   0  0  0  0  0  0  0  0  0  0  0  0
    4.4138    2.5976   -4.2924 C   0  0  0  0  0  0  0  0  0  0  0  0
    7.3553    8.3235   -0.8284 C   0  0  0  0  0  0  0  0  0  0  0  0
    6.3373    9.6032    0.9484 C   0  0  0  0  0  0  0  0  0  0  0  0
    3.1793    0.5169   -4.1027 C   0  0  0  0  0  0  0  0  0  0  0  0
    4.1880    1.2803   -4.7146 C   0  0  0  0  0  0  0  0  0  0  0  0
    8.4613    9.1645   -0.8278 C   0  0  0  0  0  0  0  0  0  0  0  0
    7.4783   10.4217    0.9814 C   0  0  0  0  0  0  0  0  0  0  0  0
    8.5277   10.2158    0.0811 C   0  0  0  0  0  0  0  0  0  0  0  0
    0.5043    0.6065   -1.3933 C   0  0  0  0  0  0  0  0  0  0  0  0
    0.1034    1.9334   -0.7887 C   0  0  0  0  0  0  0  0  0  0  0  0
   -1.0148    2.4335   -0.2588 C   0  0  0  0  0  0  0  0  0  0  0  0
    4.6839    4.8384   -2.9296 H   0  0  0  0  0  0  0  0  0  0  0  0
    1.5337   -0.6610   -2.4864 H   0  0  0  0  0  0  0  0  0  0  0  0
    5.3891    6.9630   -2.0001 H   0  0  0  0  0  0  0  0  0  0  0  0
    2.7983    6.0522    1.2909 H   0  0  0  0  0  0  0  0  0  0  0  0
    1.5158    3.0442   -2.7536 H   0  0  0  0  0  0  0  0  0  0  0  0
    5.2744    3.1520   -4.6543 H   0  0  0  0  0  0  0  0  0  0  0  0
    5.5532    9.7638    1.6866 H   0  0  0  0  0  0  0  0  0  0  0  0
    4.8490    0.8209   -5.4447 H   0  0  0  0  0  0  0  0  0  0  0  0
    9.2593    8.9917   -1.5424 H   0  0  0  0  0  0  0  0  0  0  0  0
    7.5637   11.2143    1.7239 H   0  0  0  0  0  0  0  0  0  0  0  0
    9.3980   10.8683    0.0913 H   0  0  0  0  0  0  0  0  0  0  0  0
    0.9210    2.6291   -0.8028 H   0  0  0  0  0  0  0  0  0  0  0  0
   -1.9393    2.7979    0.1579 H   0  0  0  0  0  0  0  0  0  0  0  0
   -1.6909    1.7854   -0.8190 H   0  0  0  0  0  0  0  0  0  0  0  0
  1 18  1  0  0  0  0
  2 20  1  0  0  0  0
  3 13  2  0  0  0  0
  4 25  2  0  0  0  0
  5  7  1  0  0  0  0
  5 10  1  0  0  0  0
  5 11  1  0  0  0  0
  6 12  1  0  0  0  0
  6 13  1  0  0  0  0
  6 28  1  0  0  0  0
  7 14  2  0  0  0  0
  8 16  1  0  0  0  0
  8 25  1  0  0  0  0
  8 29  1  0  0  0  0
  9 11  2  0  0  0  0
  9 13  1  0  0  0  0
  9 14  1  0  0  0  0
 10 18  2  0  0  0  0
 10 19  1  0  0  0  0
 11 30  1  0  0  0  0
 12 15  2  0  0  0  0
 12 17  1  0  0  0  0
 14 31  1  0  0  0  0
 15 16  1  0  0  0  0
 15 32  1  0  0  0  0
 16 20  2  0  0  0  0
 17 21  2  0  0  0  0
 17 33  1  0  0  0  0
 18 22  1  0  0  0  0
 19 23  2  0  0  0  0
 19 34  1  0  0  0  0
 20 21  1  0  0  0  0
 21 35  1  0  0  0  0
 22 24  2  0  0  0  0
 22 36  1  0  0  0  0
 23 24  1  0  0  0  0
 23 37  1  0  0  0  0
 24 38  1  0  0  0  0
 25 26  1  0  0  0  0
 26 27  2  0  0  0  0
 26 39  1  0  0  0  0
 27 40  1  0  0  0  0
 27 41  1  0  0  0  0
M  END
>  <Mol_ID>
4830

>  <Formula>
C19H14F2N4O2

>  <MolWeight>
368.3368664

>  <Cat>
S6650

>  <Name>
EN6

>  <Synonyms>
N/A

>  <Target>
Autophagy

>  <Form>
Free Base

>  <CAS>
1808714-73-9

>  <URL>
http://www.selleck.cn/products/en6.html

$$$$
