Enarodustat (JTZ-951)
 OpenBabel08302521303D

 41 43  0  0  0  0  0  0  0  0999 V2000
    1.0423   -4.7286    0.9619 C   0  0  0  0  0  0  0  0  0  0  0  0
    0.3772   -3.5236    1.1912 C   0  0  0  0  0  0  0  0  0  0  0  0
   -0.6917   -3.4626    2.0969 C   0  0  0  0  0  0  0  0  0  0  0  0
   -1.0725   -4.6243    2.7795 C   0  0  0  0  0  0  0  0  0  0  0  0
   -0.4076   -5.8290    2.5456 C   0  0  0  0  0  0  0  0  0  0  0  0
    0.6448   -5.8824    1.6336 C   0  0  0  0  0  0  0  0  0  0  0  0
   -1.4404   -2.1690    2.3056 C   0  0  0  0  0  0  0  0  0  0  0  0
   -2.7003   -2.0815    1.4245 C   0  0  0  0  0  0  0  0  0  0  0  0
   -3.4568   -0.7673    1.4805 C   0  0  0  0  0  0  0  0  0  0  0  0
   -2.8754    0.4236    1.7302 C   0  0  0  0  0  0  0  0  0  0  0  0
   -3.6532    1.6530    1.6683 C   0  0  0  0  0  0  0  0  0  0  0  0
   -4.9825    1.6495    1.4001 C   0  0  0  0  0  0  0  0  0  0  0  0
   -5.6346    0.3840    1.2269 C   0  0  0  0  0  0  0  0  0  0  0  0
   -4.8475   -0.7784    1.2485 N   0  0  0  0  0  0  0  0  0  0  0  0
   -6.9002    0.0595    1.0404 N   0  0  0  0  0  0  0  0  0  0  0  0
   -6.8628   -1.2961    0.9436 C   0  0  0  0  0  0  0  0  0  0  0  0
   -5.6573   -1.8496    1.0327 N   0  0  0  0  0  0  0  0  0  0  0  0
   -2.9201    2.7985    1.8598 O   0  0  0  0  0  0  0  0  0  0  0  0
   -5.7327    2.9452    1.2417 C   0  0  0  0  0  0  0  0  0  0  0  0
   -7.0643    2.8424    0.9199 N   0  0  0  0  0  0  0  0  0  0  0  0
   -7.8698    4.0289    0.6947 C   0  0  0  0  0  0  0  0  0  0  0  0
   -9.3072    3.7270    0.3069 C   0  0  0  0  0  0  0  0  0  0  0  0
   -5.2104    4.0516    1.3613 O   0  0  0  0  0  0  0  0  0  0  0  0
  -10.1817    4.5532    0.1016 O   0  0  0  0  0  0  0  0  0  0  0  0
   -9.5755    2.4116    0.1696 O   0  0  0  0  0  0  0  0  0  0  0  0
    1.8672   -4.7682    0.2551 H   0  0  0  0  0  0  0  0  0  0  0  0
    0.6980   -2.6337    0.6544 H   0  0  0  0  0  0  0  0  0  0  0  0
   -1.8933   -4.5998    3.4927 H   0  0  0  0  0  0  0  0  0  0  0  0
   -0.7141   -6.7284    3.0738 H   0  0  0  0  0  0  0  0  0  0  0  0
    1.1539   -6.8238    1.4451 H   0  0  0  0  0  0  0  0  0  0  0  0
   -1.7150   -2.0712    3.3639 H   0  0  0  0  0  0  0  0  0  0  0  0
   -0.7500   -1.3447    2.0937 H   0  0  0  0  0  0  0  0  0  0  0  0
   -2.4243   -2.2572    0.3755 H   0  0  0  0  0  0  0  0  0  0  0  0
   -3.3637   -2.9094    1.7050 H   0  0  0  0  0  0  0  0  0  0  0  0
   -1.8157    0.5065    1.9403 H   0  0  0  0  0  0  0  0  0  0  0  0
   -7.7485   -1.9033    0.8003 H   0  0  0  0  0  0  0  0  0  0  0  0
   -1.9695    2.6224    1.7823 H   0  0  0  0  0  0  0  0  0  0  0  0
   -7.5059    1.9269    0.8198 H   0  0  0  0  0  0  0  0  0  0  0  0
   -7.8686    4.6185    1.6166 H   0  0  0  0  0  0  0  0  0  0  0  0
   -7.4057    4.6036   -0.1133 H   0  0  0  0  0  0  0  0  0  0  0  0
  -10.5186    2.3934   -0.0949 H   0  0  0  0  0  0  0  0  0  0  0  0
  1  2  2  0  0  0  0
  1 26  1  0  0  0  0
  2  3  1  0  0  0  0
  2 27  1  0  0  0  0
  3  4  2  0  0  0  0
  3  7  1  0  0  0  0
  4  5  1  0  0  0  0
  4 28  1  0  0  0  0
  5  6  2  0  0  0  0
  5 29  1  0  0  0  0
  6  1  1  0  0  0  0
  6 30  1  0  0  0  0
  7  8  1  0  0  0  0
  7 31  1  0  0  0  0
  7 32  1  0  0  0  0
  8  9  1  0  0  0  0
  8 33  1  0  0  0  0
  8 34  1  0  0  0  0
  9 10  2  0  0  0  0
 10 11  1  0  0  0  0
 10 35  1  0  0  0  0
 11 12  2  0  0  0  0
 11 18  1  0  0  0  0
 12 13  1  0  0  0  0
 12 19  1  0  0  0  0
 13 14  1  0  0  0  0
 13 15  2  0  0  0  0
 14  9  1  0  0  0  0
 15 16  1  0  0  0  0
 16 17  2  0  0  0  0
 16 36  1  0  0  0  0
 17 14  1  0  0  0  0
 18 37  1  0  0  0  0
 19 20  1  0  0  0  0
 19 23  2  0  0  0  0
 20 21  1  0  0  0  0
 20 38  1  0  0  0  0
 21 22  1  0  0  0  0
 21 39  1  0  0  0  0
 21 40  1  0  0  0  0
 22 24  2  0  0  0  0
 22 25  1  0  0  0  0
 25 41  1  0  0  0  0
M  END
>  <Mol_ID>
5554

>  <Formula>
C17H16N4O4

>  <MolWeight>
340.33334

>  <Cat>
S9656

>  <Name>
Enarodustat (JTZ-951)

>  <Synonyms>
N/A

>  <Target>
HIF

>  <Form>
Free Base

>  <CAS>
1262132-81-9

>  <URL>
https://www.selleckchem.com/products/enarodustat.html

$$$$
