Encenicline (EVP-6124) hydrochloride
 OpenBabel08302521323D

 38 41  0  0  0  0  0  0  0  0999 V2000
    7.5471    1.3660    5.6259 C   0  0  0  0  0  0  0  0  0  0  0  0
    8.5490    0.6299    4.9933 C   0  0  0  0  0  0  0  0  0  0  0  0
    8.0685    0.0238    3.7883 C   0  0  0  0  0  0  0  0  0  0  0  0
    6.7441    0.3032    3.5192 C   0  0  0  0  0  0  0  0  0  0  0  0
    6.0645    1.2764    4.7509 S   0  0  0  0  0  0  0  0  0  0  0  0
    9.8311    0.5759    5.5924 C   0  0  0  0  0  0  0  0  0  0  0  0
   10.0843    1.2584    6.7840 C   0  0  0  0  0  0  0  0  0  0  0  0
    9.0777    1.9943    7.3933 C   0  0  0  0  0  0  0  0  0  0  0  0
    7.7992    2.0581    6.8288 C   0  0  0  0  0  0  0  0  0  0  0  0
    5.9273   -0.1394    2.3976 C   0  0  0  0  0  0  0  0  0  0  0  0
    4.7135   -0.3214    2.4546 O   0  0  0  0  0  0  0  0  0  0  0  0
    6.6411   -0.3629    1.2315 N   0  0  0  0  0  0  0  0  0  0  0  0
    7.3047   -1.7167   -2.0244 N   0  0  3  0  0  0  0  0  0  0  0  0
    6.6807   -0.6037   -1.2630 C   0  0  0  0  0  0  0  0  0  0  0  0
    6.0761   -1.0733    0.0885 C   0  0  1  0  0  0  0  0  0  0  0  0
    6.3201   -2.5959    0.2209 C   0  0  3  0  0  0  0  0  0  0  0  0
    7.8325   -2.8770    0.1206 C   0  0  0  0  0  0  0  0  0  0  0  0
    8.3765   -2.3145   -1.2020 C   0  0  0  0  0  0  0  0  0  0  0  0
    5.6529   -3.2791   -0.9851 C   0  0  0  0  0  0  0  0  0  0  0  0
    6.2786   -2.7510   -2.2869 C   0  0  0  0  0  0  0  0  0  0  0  0
    8.6840   -0.6104    3.1634 H   0  0  0  0  0  0  0  0  0  0  0  0
   10.6252    0.0001    5.1233 H   0  0  0  0  0  0  0  0  0  0  0  0
   11.0738    1.2102    7.2324 H   0  0  0  0  0  0  0  0  0  0  0  0
    9.2839    2.5236    8.3209 H   0  0  0  0  0  0  0  0  0  0  0  0
    7.0141    2.6312    7.3146 H   0  0  0  0  0  0  0  0  0  0  0  0
    7.6348   -0.1842    1.2310 H   0  0  0  0  0  0  0  0  0  0  0  0
    5.8890   -0.1564   -1.8782 H   0  0  0  0  0  0  0  0  0  0  0  0
    7.4198    0.1939   -1.1160 H   0  0  0  0  0  0  0  0  0  0  0  0
    4.9951   -0.8867    0.0723 H   0  0  0  0  0  0  0  0  0  0  0  0
    5.9174   -2.9859    1.1618 H   0  0  0  0  0  0  0  0  0  0  0  0
    8.3683   -2.4295    0.9654 H   0  0  0  0  0  0  0  0  0  0  0  0
    8.0135   -3.9576    0.1667 H   0  0  0  0  0  0  0  0  0  0  0  0
    9.1507   -1.5632   -1.0019 H   0  0  0  0  0  0  0  0  0  0  0  0
    8.8797   -3.1092   -1.7675 H   0  0  0  0  0  0  0  0  0  0  0  0
    5.7859   -4.3658   -0.9221 H   0  0  0  0  0  0  0  0  0  0  0  0
    4.5743   -3.0828   -0.9810 H   0  0  0  0  0  0  0  0  0  0  0  0
    5.4976   -2.3432   -2.9403 H   0  0  0  0  0  0  0  0  0  0  0  0
    6.7260   -3.5807   -2.8497 H   0  0  0  0  0  0  0  0  0  0  0  0
  1  2  2  0  0  0  0
  1  5  1  0  0  0  0
  1  9  1  0  0  0  0
  2  3  1  0  0  0  0
  2  6  1  0  0  0  0
  3  4  2  0  0  0  0
  3 21  1  0  0  0  0
  4  5  1  0  0  0  0
  4 10  1  0  0  0  0
  6  7  2  0  0  0  0
  6 22  1  0  0  0  0
  7  8  1  0  0  0  0
  7 23  1  0  0  0  0
  8  9  2  0  0  0  0
  8 24  1  0  0  0  0
  9 25  1  0  0  0  0
 10 11  2  0  0  0  0
 10 12  1  0  0  0  0
 12 26  1  0  0  0  0
 13 14  1  0  0  0  0
 13 18  1  0  0  0  0
 13 20  1  0  0  0  0
 14 15  1  0  0  0  0
 14 27  1  0  0  0  0
 14 28  1  0  0  0  0
 15 16  1  0  0  0  0
 15 29  1  6  0  0  0
 15 12  1  0  0  0  0
 16 17  1  0  0  0  0
 16 19  1  0  0  0  0
 16 30  1  0  0  0  0
 17 18  1  0  0  0  0
 17 31  1  0  0  0  0
 17 32  1  0  0  0  0
 18 33  1  0  0  0  0
 18 34  1  0  0  0  0
 19 20  1  0  0  0  0
 19 35  1  0  0  0  0
 19 36  1  0  0  0  0
 20 37  1  0  0  0  0
 20 38  1  0  0  0  0
M  END
>  <Mol_ID>
6211

>  <Formula>
C16H18Cl2N2OS

>  <MolWeight>
357.29792

>  <Cat>
S2957

>  <Name>
Encenicline (EVP-6124) hydrochloride

>  <Synonyms>
N/A

>  <Target>
AChR

>  <Form>
hydrochloride

>  <CAS>
550999-74-1

>  <URL>
http://www.selleckchem.com/products/encenicline-hydrochloride.html

$$$$
