Ensulizole
 OpenBabel08302521303D

 29 31  0  0  0  0  0  0  0  0999 V2000
    0.9642    0.0241   -0.0856 S   0  0  0  0  0  0  0  0  0  0  0  0
    0.6486    0.7884    1.2998 O   0  0  0  0  0  0  0  0  0  0  0  0
    0.5071    0.8521   -1.1803 O   0  0  0  0  0  0  0  0  0  0  0  0
    0.4887   -1.3285    0.1123 O   0  0  0  0  0  0  0  0  0  0  0  0
    5.7883    2.1119   -0.0989 N   0  0  0  0  0  0  0  0  0  0  0  0
    6.8647    0.1811   -0.1426 N   0  0  0  0  0  0  0  0  0  0  0  0
    4.8102    1.1501   -0.1197 C   0  0  0  0  0  0  0  0  0  0  0  0
    5.5142   -0.0474   -0.1460 C   0  0  0  0  0  0  0  0  0  0  0  0
    7.0173    1.4920   -0.0819 C   0  0  0  0  0  0  0  0  0  0  0  0
    3.4162    1.2223   -0.1193 C   0  0  0  0  0  0  0  0  0  0  0  0
    2.7384   -0.0077   -0.1373 C   0  0  0  0  0  0  0  0  0  0  0  0
    4.8127   -1.2625   -0.1650 C   0  0  0  0  0  0  0  0  0  0  0  0
    8.2937    2.2045   -0.0151 C   0  0  0  0  0  0  0  0  0  0  0  0
    3.4129   -1.2335   -0.1591 C   0  0  0  0  0  0  0  0  0  0  0  0
    8.4177    3.4464    0.6246 C   0  0  0  0  0  0  0  0  0  0  0  0
    9.4390    1.6147   -0.5674 C   0  0  0  0  0  0  0  0  0  0  0  0
    9.6617    4.0781    0.7125 C   0  0  0  0  0  0  0  0  0  0  0  0
   10.6804    2.2488   -0.4851 C   0  0  0  0  0  0  0  0  0  0  0  0
   10.7915    3.4790    0.1589 C   0  0  0  0  0  0  0  0  0  0  0  0
    0.4197    0.1084    1.9666 H   0  0  0  0  0  0  0  0  0  0  0  0
    5.6375    3.1080   -0.0976 H   0  0  0  0  0  0  0  0  0  0  0  0
    2.8857    2.1699   -0.1002 H   0  0  0  0  0  0  0  0  0  0  0  0
    5.3572   -2.2015   -0.1773 H   0  0  0  0  0  0  0  0  0  0  0  0
    2.8653   -2.1742   -0.1688 H   0  0  0  0  0  0  0  0  0  0  0  0
    7.5624    3.9249    1.0927 H   0  0  0  0  0  0  0  0  0  0  0  0
    9.3655    0.6469   -1.0612 H   0  0  0  0  0  0  0  0  0  0  0  0
    9.7523    5.0318    1.2269 H   0  0  0  0  0  0  0  0  0  0  0  0
   11.5595    1.7751   -0.9142 H   0  0  0  0  0  0  0  0  0  0  0  0
   11.7606    3.9652    0.2375 H   0  0  0  0  0  0  0  0  0  0  0  0
  1  2  1  0  0  0  0
  1  3  2  0  0  0  0
  1  4  2  0  0  0  0
  1 11  1  0  0  0  0
  2 20  1  0  0  0  0
  5  7  1  0  0  0  0
  5  9  1  0  0  0  0
  5 21  1  0  0  0  0
  6  8  1  0  0  0  0
  6  9  2  0  0  0  0
  7  8  2  0  0  0  0
  7 10  1  0  0  0  0
  8 12  1  0  0  0  0
  9 13  1  0  0  0  0
 10 11  2  0  0  0  0
 10 22  1  0  0  0  0
 11 14  1  0  0  0  0
 12 14  2  0  0  0  0
 12 23  1  0  0  0  0
 13 15  2  0  0  0  0
 13 16  1  0  0  0  0
 14 24  1  0  0  0  0
 15 17  1  0  0  0  0
 15 25  1  0  0  0  0
 16 18  2  0  0  0  0
 16 26  1  0  0  0  0
 17 19  2  0  0  0  0
 17 27  1  0  0  0  0
 18 19  1  0  0  0  0
 18 28  1  0  0  0  0
 19 29  1  0  0  0  0
M  END
>  <Mol_ID>
5599

>  <Formula>
C13H10N2O3S

>  <MolWeight>
274.2951

>  <Cat>
S4419

>  <Name>
Ensulizole

>  <Synonyms>
PBSA

>  <Target>
ROS

>  <Form>
Free Base

>  <CAS>
27503-81-7

>  <URL>
http://www.selleckchem.com/products/ensulizole.html

$$$$
