Epacadostat (INCB024360).cdx
 OpenBabel08302519553D

 38 39  0  0  0  0  0  0  0  0999 V2000
   -1.0227   -0.1605   -0.1855 N   0  0  0  0  0  0  0  0  0  0  0  0
   -0.5510    1.0811    0.0084 C   0  0  0  0  0  0  0  0  0  0  0  0
    0.8680    1.0542   -0.1979 C   0  0  0  0  0  0  0  0  0  0  0  0
    1.2388   -0.1919   -0.4944 N   0  0  0  0  0  0  0  0  0  0  0  0
    0.0798   -0.9442   -0.4681 O   0  0  0  0  0  0  0  0  0  0  0  0
   -1.4626    2.1830    0.3154 C   0  0  0  0  0  0  0  0  0  0  0  0
   -1.0931    3.4117   -0.1938 N   0  0  0  0  0  0  0  0  0  0  0  0
   -2.5782    2.1433    1.0003 N   0  0  0  0  0  0  0  0  0  0  0  0
   -3.0750    1.1307    1.8207 C   0  0  0  0  0  0  0  0  0  0  0  0
   -2.2585    0.3366    2.6293 C   0  0  0  0  0  0  0  0  0  0  0  0
   -2.7972   -0.3703    3.7037 C   0  0  0  0  0  0  0  0  0  0  0  0
   -4.1529   -0.2687    3.9952 C   0  0  0  0  0  0  0  0  0  0  0  0
   -4.9937    0.4711    3.1735 C   0  0  0  0  0  0  0  0  0  0  0  0
   -4.4559    1.1528    2.0784 C   0  0  0  0  0  0  0  0  0  0  0  0
   -1.6386   -1.3822    4.8032 Br  0  0  0  0  0  0  0  0  0  0  0  0
   -4.6621   -0.8381    5.0970 F   0  0  0  0  0  0  0  0  0  0  0  0
   -1.6471    4.4903    0.5243 O   0  0  0  0  0  0  0  0  0  0  0  0
    1.7196    2.1157   -0.0742 N   0  0  0  0  0  0  0  0  0  0  0  0
    3.1156    2.0098   -0.5220 C   0  0  0  0  0  0  0  0  0  0  0  0
    3.3294    1.9190   -2.0461 C   0  0  0  0  0  0  0  0  0  0  0  0
    3.0653    3.1489   -2.8310 N   0  0  0  0  0  0  0  0  0  0  0  0
    1.5367    3.6592   -3.1781 S   0  0  0  0  0  0  0  0  0  0  0  0
    0.8576    2.2660   -3.7458 N   0  0  0  0  0  0  0  0  0  0  0  0
    0.8652    4.0243   -1.9577 O   0  0  0  0  0  0  0  0  0  0  0  0
    1.6227    4.5627   -4.2831 O   0  0  0  0  0  0  0  0  0  0  0  0
   -0.1425    3.5772   -0.5518 H   0  0  0  0  0  0  0  0  0  0  0  0
   -1.1865    0.3164    2.4767 H   0  0  0  0  0  0  0  0  0  0  0  0
   -6.0474    0.5589    3.4200 H   0  0  0  0  0  0  0  0  0  0  0  0
   -5.1075    1.7794    1.4713 H   0  0  0  0  0  0  0  0  0  0  0  0
   -2.4936    4.1150    0.8617 H   0  0  0  0  0  0  0  0  0  0  0  0
    1.6656    2.5997    0.8221 H   0  0  0  0  0  0  0  0  0  0  0  0
    3.6588    2.8844   -0.1454 H   0  0  0  0  0  0  0  0  0  0  0  0
    3.5833    1.1347   -0.0515 H   0  0  0  0  0  0  0  0  0  0  0  0
    4.4011    1.7261   -2.1978 H   0  0  0  0  0  0  0  0  0  0  0  0
    2.8144    1.0631   -2.4892 H   0  0  0  0  0  0  0  0  0  0  0  0
    3.6557    3.9442   -2.5849 H   0  0  0  0  0  0  0  0  0  0  0  0
   -0.1576    2.3397   -3.7514 H   0  0  0  0  0  0  0  0  0  0  0  0
    1.2059    2.0765   -4.6840 H   0  0  0  0  0  0  0  0  0  0  0  0
  1  2  2  0  0  0  0
  2  3  1  0  0  0  0
  2  6  1  0  0  0  0
  3  4  2  0  0  0  0
  3 18  1  0  0  0  0
  4  5  1  0  0  0  0
  5  1  1  0  0  0  0
  6  7  1  0  0  0  0
  6  8  2  0  0  0  0
  7 17  1  0  0  0  0
  7 26  1  0  0  0  0
  8  9  1  0  0  0  0
  9 10  2  0  0  0  0
 10 11  1  0  0  0  0
 10 27  1  0  0  0  0
 11 12  2  0  0  0  0
 11 15  1  0  0  0  0
 12 13  1  0  0  0  0
 12 16  1  0  0  0  0
 13 14  2  0  0  0  0
 13 28  1  0  0  0  0
 14  9  1  0  0  0  0
 14 29  1  0  0  0  0
 17 30  1  0  0  0  0
 18 19  1  0  0  0  0
 18 31  1  0  0  0  0
 19 20  1  0  0  0  0
 19 32  1  0  0  0  0
 19 33  1  0  0  0  0
 20 21  1  0  0  0  0
 20 34  1  0  0  0  0
 20 35  1  0  0  0  0
 21 22  1  0  0  0  0
 21 36  1  0  0  0  0
 22 23  1  0  0  0  0
 22 24  2  0  0  0  0
 22 25  2  0  0  0  0
 23 37  1  0  0  0  0
 23 38  1  0  0  0  0
M  END
>  <Mol_ID>
2180

>  <Formula>
C11H13BrFN7O4S

>  <MolWeight>
438.2328232

>  <Cat>
S7910

>  <Name>
Epacadostat (INCB024360)

>  <Synonyms>
N/A

>  <Target>
IDO/TDO

>  <Form>
free base

>  <CAS>
1204669-58-8

>  <URL>
http://selleckchem.com/products/epacadostat-incb024360.html

$$$$
