Epinastine HCl.cdx
 OpenBabel08302522053D

 34 37  0  0  0  0  0  0  0  0999 V2000
    0.6844    2.0239   -0.3394 N   0  0  0  0  0  0  0  0  0  0  0  0
   -0.2785    1.7065    0.7434 C   0  0  3  0  0  0  0  0  0  0  0  0
   -1.2692    0.5841    0.6596 C   0  0  0  0  0  0  0  0  0  0  0  0
   -1.1241   -0.5896   -0.0884 C   0  0  0  0  0  0  0  0  0  0  0  0
   -0.0038   -0.7832   -1.0765 C   0  0  0  0  0  0  0  0  0  0  0  0
    1.3624   -0.3809   -0.5934 C   0  0  0  0  0  0  0  0  0  0  0  0
    1.7029    0.9791   -0.3956 C   0  0  0  0  0  0  0  0  0  0  0  0
    1.1087    3.2480    0.1836 C   0  0  0  0  0  0  0  0  0  0  0  0
    1.1865    3.3942    1.4913 N   0  0  0  0  0  0  0  0  0  0  0  0
    0.5927    2.0790    1.9665 C   0  0  0  0  0  0  0  0  0  0  0  0
   -2.1655   -1.5419   -0.0800 C   0  0  0  0  0  0  0  0  0  0  0  0
   -3.3830   -1.2858    0.5493 C   0  0  0  0  0  0  0  0  0  0  0  0
   -3.5803   -0.0698    1.1818 C   0  0  0  0  0  0  0  0  0  0  0  0
   -2.5242    0.8299    1.2697 C   0  0  0  0  0  0  0  0  0  0  0  0
    3.0629    1.2641   -0.1570 C   0  0  0  0  0  0  0  0  0  0  0  0
    4.0099    0.2486    0.0334 C   0  0  0  0  0  0  0  0  0  0  0  0
    3.6294   -1.0815   -0.0613 C   0  0  0  0  0  0  0  0  0  0  0  0
    2.3291   -1.3978   -0.4024 C   0  0  0  0  0  0  0  0  0  0  0  0
    1.0334    4.3143   -0.6514 N   0  0  0  0  0  0  0  0  0  0  0  0
   -0.9854    2.5559    0.6754 H   0  0  0  0  0  0  0  0  0  0  0  0
   -0.2520   -0.2164   -1.9901 H   0  0  0  0  0  0  0  0  0  0  0  0
    0.0155   -1.8336   -1.3974 H   0  0  0  0  0  0  0  0  0  0  0  0
    1.3918    1.3640    2.1945 H   0  0  0  0  0  0  0  0  0  0  0  0
    0.0063    2.2466    2.8737 H   0  0  0  0  0  0  0  0  0  0  0  0
   -2.0504   -2.4822   -0.6156 H   0  0  0  0  0  0  0  0  0  0  0  0
   -4.1888   -2.0100    0.4961 H   0  0  0  0  0  0  0  0  0  0  0  0
   -4.5543    0.1896    1.5879 H   0  0  0  0  0  0  0  0  0  0  0  0
   -2.7152    1.7858    1.7598 H   0  0  0  0  0  0  0  0  0  0  0  0
    3.4056    2.2903   -0.0374 H   0  0  0  0  0  0  0  0  0  0  0  0
    5.0349    0.5039    0.2898 H   0  0  0  0  0  0  0  0  0  0  0  0
    4.3470   -1.8758    0.1216 H   0  0  0  0  0  0  0  0  0  0  0  0
    2.0400   -2.4385   -0.5199 H   0  0  0  0  0  0  0  0  0  0  0  0
    0.2582    4.1993   -1.2984 H   0  0  0  0  0  0  0  0  0  0  0  0
    0.8950    5.1552   -0.0973 H   0  0  0  0  0  0  0  0  0  0  0  0
  1  2  1  0  0  0  0
  1  7  1  0  0  0  0
  1  8  1  0  0  0  0
  2  3  1  0  0  0  0
  2 10  1  0  0  0  0
  2 20  1  0  0  0  0
  3  4  2  0  0  0  0
  3 14  1  0  0  0  0
  4  5  1  0  0  0  0
  4 11  1  0  0  0  0
  5  6  1  0  0  0  0
  5 21  1  0  0  0  0
  5 22  1  0  0  0  0
  6  7  2  0  0  0  0
  6 18  1  0  0  0  0
  7 15  1  0  0  0  0
  8  9  2  0  0  0  0
  8 19  1  0  0  0  0
  9 10  1  0  0  0  0
 10 23  1  0  0  0  0
 10 24  1  0  0  0  0
 11 12  2  0  0  0  0
 11 25  1  0  0  0  0
 12 13  1  0  0  0  0
 12 26  1  0  0  0  0
 13 14  2  0  0  0  0
 13 27  1  0  0  0  0
 14 28  1  0  0  0  0
 15 16  2  0  0  0  0
 15 29  1  0  0  0  0
 16 17  1  0  0  0  0
 16 30  1  0  0  0  0
 17 18  2  0  0  0  0
 17 31  1  0  0  0  0
 18 32  1  0  0  0  0
 19 33  1  0  0  0  0
 19 34  1  0  0  0  0
M  END
>  <Mol_ID>
1370

>  <Formula>
C16H16ClN3

>  <MolWeight>
285.77134

>  <Cat>
S4253

>  <Name>
Epinastine HCl

>  <Synonyms>
WAL-801CL HCl

>  <Target>
Histamine Receptor

>  <Form>
Hydrochloride

>  <CAS>
108929-04-0

>  <URL>
http://selleckchem.com/products/epinastine-hcl.html

$$$$
