Eprazinone 2HCl.cdx
 OpenBabel08302521383D

 60 62  0  0  0  0  0  0  0  0999 V2000
    0.1805    2.3115   -0.4276 C   0  0  3  0  0  0  0  0  0  0  0  0
   -0.5810    3.1326   -1.4612 C   0  0  0  0  0  0  0  0  0  0  0  0
    0.1977    0.7779   -0.7576 C   0  0  0  0  0  0  0  0  0  0  0  0
   -0.3888    2.5739    0.8718 O   0  0  0  0  0  0  0  0  0  0  0  0
   -1.9472    2.9205   -1.7013 C   0  0  0  0  0  0  0  0  0  0  0  0
    0.0846    4.1076   -2.2247 C   0  0  0  0  0  0  0  0  0  0  0  0
    0.8155    0.3700   -2.0382 N   0  0  0  0  0  0  0  0  0  0  0  0
    0.3929    2.0357    1.9395 C   0  0  0  0  0  0  0  0  0  0  0  0
   -2.6170    3.6322   -2.7010 C   0  0  0  0  0  0  0  0  0  0  0  0
   -0.5871    4.8216   -3.2221 C   0  0  0  0  0  0  0  0  0  0  0  0
    0.7607   -1.1006   -2.2190 C   0  0  0  0  0  0  0  0  0  0  0  0
    2.2074    0.8282   -2.1874 C   0  0  0  0  0  0  0  0  0  0  0  0
   -0.0211    2.6749    3.2486 C   0  0  0  0  0  0  0  0  0  0  0  0
   -1.9361    4.5768   -3.4660 C   0  0  0  0  0  0  0  0  0  0  0  0
    1.8717   -1.9297   -1.5089 C   0  0  0  0  0  0  0  0  0  0  0  0
    3.2227    0.0423   -1.3343 C   0  0  0  0  0  0  0  0  0  0  0  0
    3.2517   -1.3989   -1.6293 N   0  0  0  0  0  0  0  0  0  0  0  0
    3.8342   -1.7420   -2.9451 C   0  0  0  0  0  0  0  0  0  0  0  0
    5.2730   -1.2331   -3.1884 C   0  0  3  0  0  0  0  0  0  0  0  0
    6.2251   -1.8165   -2.1495 C   0  0  0  0  0  0  0  0  0  0  0  0
    5.7623   -1.6265   -4.5834 C   0  0  0  0  0  0  0  0  0  0  0  0
    7.0906   -0.8954   -1.3623 C   0  0  0  0  0  0  0  0  0  0  0  0
    6.3173   -3.0278   -1.9491 O   0  0  0  0  0  0  0  0  0  0  0  0
    7.4154   -1.2464   -0.0458 C   0  0  0  0  0  0  0  0  0  0  0  0
    7.6137    0.2817   -1.9137 C   0  0  0  0  0  0  0  0  0  0  0  0
    8.2495   -0.4261    0.7169 C   0  0  0  0  0  0  0  0  0  0  0  0
    8.4529    1.0971   -1.1476 C   0  0  0  0  0  0  0  0  0  0  0  0
    8.7677    0.7443    0.1642 C   0  0  0  0  0  0  0  0  0  0  0  0
    1.2088    2.6886   -0.3874 H   0  0  0  0  0  0  0  0  0  0  0  0
    0.6858    0.2412    0.0623 H   0  0  0  0  0  0  0  0  0  0  0  0
   -0.8433    0.4262   -0.7413 H   0  0  0  0  0  0  0  0  0  0  0  0
   -2.4958    2.1868   -1.1160 H   0  0  0  0  0  0  0  0  0  0  0  0
    1.1389    4.3122   -2.0577 H   0  0  0  0  0  0  0  0  0  0  0  0
    0.2143    0.9586    2.0073 H   0  0  0  0  0  0  0  0  0  0  0  0
    1.4610    2.2136    1.7689 H   0  0  0  0  0  0  0  0  0  0  0  0
   -3.6710    3.4430   -2.8872 H   0  0  0  0  0  0  0  0  0  0  0  0
   -0.0549    5.5629   -3.8126 H   0  0  0  0  0  0  0  0  0  0  0  0
   -0.2214   -1.4859   -1.9143 H   0  0  0  0  0  0  0  0  0  0  0  0
    0.8242   -1.2956   -3.2966 H   0  0  0  0  0  0  0  0  0  0  0  0
    2.4787    0.7457   -3.2468 H   0  0  0  0  0  0  0  0  0  0  0  0
    2.3065    1.8948   -1.9707 H   0  0  0  0  0  0  0  0  0  0  0  0
   -1.0938    2.5460    3.4217 H   0  0  0  0  0  0  0  0  0  0  0  0
    0.5281    2.2264    4.0821 H   0  0  0  0  0  0  0  0  0  0  0  0
    0.1803    3.7505    3.2347 H   0  0  0  0  0  0  0  0  0  0  0  0
   -2.4557    5.1216   -4.2501 H   0  0  0  0  0  0  0  0  0  0  0  0
    1.6338   -1.9852   -0.4388 H   0  0  0  0  0  0  0  0  0  0  0  0
    1.8315   -2.9666   -1.8672 H   0  0  0  0  0  0  0  0  0  0  0  0
    2.9822    0.1662   -0.2700 H   0  0  0  0  0  0  0  0  0  0  0  0
    4.2147    0.4916   -1.4348 H   0  0  0  0  0  0  0  0  0  0  0  0
    3.8407   -2.8364   -3.0396 H   0  0  0  0  0  0  0  0  0  0  0  0
    3.1933   -1.3708   -3.7547 H   0  0  0  0  0  0  0  0  0  0  0  0
    5.2670   -0.1402   -3.1462 H   0  0  0  0  0  0  0  0  0  0  0  0
    4.9987   -1.4305   -5.3432 H   0  0  0  0  0  0  0  0  0  0  0  0
    6.6525   -1.0464   -4.8509 H   0  0  0  0  0  0  0  0  0  0  0  0
    6.0358   -2.6856   -4.6367 H   0  0  0  0  0  0  0  0  0  0  0  0
    7.0212   -2.1644    0.3866 H   0  0  0  0  0  0  0  0  0  0  0  0
    7.4152    0.5616   -2.9431 H   0  0  0  0  0  0  0  0  0  0  0  0
    8.5025   -0.7062    1.7367 H   0  0  0  0  0  0  0  0  0  0  0  0
    8.8730    2.0040   -1.5786 H   0  0  0  0  0  0  0  0  0  0  0  0
    9.4288    1.3755    0.7539 H   0  0  0  0  0  0  0  0  0  0  0  0
  1  2  1  0  0  0  0
  1  3  1  0  0  0  0
  1  4  1  0  0  0  0
  1 29  1  0  0  0  0
  2  5  2  0  0  0  0
  2  6  1  0  0  0  0
  3  7  1  0  0  0  0
  3 30  1  0  0  0  0
  3 31  1  0  0  0  0
  4  8  1  0  0  0  0
  5  9  1  0  0  0  0
  5 32  1  0  0  0  0
  6 10  2  0  0  0  0
  6 33  1  0  0  0  0
  7 11  1  0  0  0  0
  7 12  1  0  0  0  0
  8 13  1  0  0  0  0
  8 34  1  0  0  0  0
  8 35  1  0  0  0  0
  9 14  2  0  0  0  0
  9 36  1  0  0  0  0
 10 14  1  0  0  0  0
 10 37  1  0  0  0  0
 11 15  1  0  0  0  0
 11 38  1  0  0  0  0
 11 39  1  0  0  0  0
 12 16  1  0  0  0  0
 12 40  1  0  0  0  0
 12 41  1  0  0  0  0
 13 42  1  0  0  0  0
 13 43  1  0  0  0  0
 13 44  1  0  0  0  0
 14 45  1  0  0  0  0
 15 17  1  0  0  0  0
 15 46  1  0  0  0  0
 15 47  1  0  0  0  0
 16 17  1  0  0  0  0
 16 48  1  0  0  0  0
 16 49  1  0  0  0  0
 17 18  1  0  0  0  0
 18 19  1  0  0  0  0
 18 50  1  0  0  0  0
 18 51  1  0  0  0  0
 19 20  1  0  0  0  0
 19 21  1  0  0  0  0
 19 52  1  0  0  0  0
 20 22  1  0  0  0  0
 20 23  2  0  0  0  0
 21 53  1  0  0  0  0
 21 54  1  0  0  0  0
 21 55  1  0  0  0  0
 22 24  2  0  0  0  0
 22 25  1  0  0  0  0
 24 26  1  0  0  0  0
 24 56  1  0  0  0  0
 25 27  2  0  0  0  0
 25 57  1  0  0  0  0
 26 28  2  0  0  0  0
 26 58  1  0  0  0  0
 27 28  1  0  0  0  0
 27 59  1  0  0  0  0
 28 60  1  0  0  0  0
M  END
>  <Mol_ID>
7725

>  <Formula>
C24H34Cl2N2O2

>  <MolWeight>
453.44496

>  <Cat>
S4137

>  <Name>
Eprazinone 2HCl

>  <Synonyms>
NSC 317935

>  <Target>
Others

>  <Form>
HCl

>  <CAS>
10402-53-6

>  <URL>
http://selleckchem.com/products/eprazinone-2hcl.html

$$$$
