EPZ015666.cdx
 OpenBabel08302519593D

 53 56  0  0  0  0  0  0  0  0999 V2000
    0.8050   -0.3231    2.2118 C   0  0  0  0  0  0  0  0  0  0  0  0
    1.0508    0.6754    1.3505 N   0  0  0  0  0  0  0  0  0  0  0  0
    0.0454    1.0261    0.5253 C   0  0  0  0  0  0  0  0  0  0  0  0
   -1.1681    0.4565    0.4539 N   0  0  0  0  0  0  0  0  0  0  0  0
   -1.3488   -0.5530    1.3351 C   0  0  0  0  0  0  0  0  0  0  0  0
   -0.4056   -0.9672    2.2451 C   0  0  0  0  0  0  0  0  0  0  0  0
    1.7958   -0.7734    3.1036 N   0  0  0  0  0  0  0  0  0  0  0  0
    3.1994   -0.6358    2.8520 C   0  0  0  0  0  0  0  0  0  0  0  0
   -2.6553   -1.2696    1.3368 C   0  0  0  0  0  0  0  0  0  0  0  0
   -3.5662   -0.9313    0.3672 N   0  0  0  0  0  0  0  0  0  0  0  0
   -4.9013   -1.5159    0.3852 C   0  0  0  0  0  0  0  0  0  0  0  0
   -5.8881   -0.7593    1.2919 C   0  0  1  0  0  0  0  0  0  0  0  0
   -6.1176    0.7537    0.9972 C   0  0  0  0  0  0  0  0  0  0  0  0
   -2.8909   -2.1120    2.2032 O   0  0  0  0  0  0  0  0  0  0  0  0
   -7.1405   -1.4557    1.3108 O   0  0  0  0  0  0  0  0  0  0  0  0
   -6.8106    1.1246   -0.2621 N   0  0  0  0  0  0  0  0  0  0  0  0
   -6.0035    0.9183   -1.4787 C   0  0  0  0  0  0  0  0  0  0  0  0
   -5.2383    2.1362   -2.0013 C   0  0  0  0  0  0  0  0  0  0  0  0
   -6.2657    3.1627   -2.3589 C   0  0  0  0  0  0  0  0  0  0  0  0
   -7.3472    3.3058   -1.4723 C   0  0  0  0  0  0  0  0  0  0  0  0
   -7.3186    2.5279   -0.1668 C   0  0  0  0  0  0  0  0  0  0  0  0
   -6.1980    3.8992   -3.5425 C   0  0  0  0  0  0  0  0  0  0  0  0
   -7.2265    4.7801   -3.8584 C   0  0  0  0  0  0  0  0  0  0  0  0
   -8.3064    4.9345   -2.9859 C   0  0  0  0  0  0  0  0  0  0  0  0
   -8.3625    4.2096   -1.7910 C   0  0  0  0  0  0  0  0  0  0  0  0
    4.0717   -1.1981    3.9828 C   0  0  0  0  0  0  0  0  0  0  0  0
    4.8823    0.0090    3.9819 O   0  0  0  0  0  0  0  0  0  0  0  0
    3.8385    0.7000    3.2339 C   0  0  0  0  0  0  0  0  0  0  0  0
    0.2413    1.8603   -0.1429 H   0  0  0  0  0  0  0  0  0  0  0  0
   -0.5879   -1.7979    2.9153 H   0  0  0  0  0  0  0  0  0  0  0  0
    1.5116   -0.5981    4.0659 H   0  0  0  0  0  0  0  0  0  0  0  0
    3.4807   -1.0093    1.8621 H   0  0  0  0  0  0  0  0  0  0  0  0
   -3.3145   -0.1981   -0.2893 H   0  0  0  0  0  0  0  0  0  0  0  0
   -5.2728   -1.6344   -0.6349 H   0  0  0  0  0  0  0  0  0  0  0  0
   -4.8201   -2.5490    0.7475 H   0  0  0  0  0  0  0  0  0  0  0  0
   -5.4961   -0.8197    2.3172 H   0  0  0  0  0  0  0  0  0  0  0  0
   -6.7711    1.0903    1.8151 H   0  0  0  0  0  0  0  0  0  0  0  0
   -5.1763    1.3079    1.1011 H   0  0  0  0  0  0  0  0  0  0  0  0
   -7.7876   -0.8839    0.8542 H   0  0  0  0  0  0  0  0  0  0  0  0
   -5.2797    0.1215   -1.3847 H   0  0  0  0  0  0  0  0  0  0  0  0
   -6.6988    0.5723   -2.2571 H   0  0  0  0  0  0  0  0  0  0  0  0
   -4.5449    2.5294   -1.2486 H   0  0  0  0  0  0  0  0  0  0  0  0
   -4.6543    1.8442   -2.8813 H   0  0  0  0  0  0  0  0  0  0  0  0
   -8.3258    2.4908    0.2647 H   0  0  0  0  0  0  0  0  0  0  0  0
   -6.6943    3.1186    0.5191 H   0  0  0  0  0  0  0  0  0  0  0  0
   -5.3662    3.7687   -4.2297 H   0  0  0  0  0  0  0  0  0  0  0  0
   -7.1914    5.3397   -4.7892 H   0  0  0  0  0  0  0  0  0  0  0  0
   -9.1074    5.6230   -3.2423 H   0  0  0  0  0  0  0  0  0  0  0  0
   -9.2052    4.3511   -1.1189 H   0  0  0  0  0  0  0  0  0  0  0  0
    3.5933   -1.3371    4.9586 H   0  0  0  0  0  0  0  0  0  0  0  0
    4.6477   -2.0911    3.7259 H   0  0  0  0  0  0  0  0  0  0  0  0
    4.2497    1.2693    2.3959 H   0  0  0  0  0  0  0  0  0  0  0  0
    3.2667    1.3600    3.8927 H   0  0  0  0  0  0  0  0  0  0  0  0
  1  2  2  0  0  0  0
  1  7  1  0  0  0  0
  2  3  1  0  0  0  0
  3  4  2  0  0  0  0
  3 29  1  0  0  0  0
  4  5  1  0  0  0  0
  5  6  2  0  0  0  0
  5  9  1  0  0  0  0
  6  1  1  0  0  0  0
  6 30  1  0  0  0  0
  7  8  1  0  0  0  0
  7 31  1  0  0  0  0
  8 26  1  0  0  0  0
  8 32  1  0  0  0  0
  9 10  1  0  0  0  0
  9 14  2  0  0  0  0
 10 11  1  0  0  0  0
 10 33  1  0  0  0  0
 11 12  1  0  0  0  0
 11 34  1  0  0  0  0
 11 35  1  0  0  0  0
 12 13  1  0  0  0  0
 12 15  1  0  0  0  0
 12 36  1  1  0  0  0
 13 16  1  0  0  0  0
 13 37  1  0  0  0  0
 13 38  1  0  0  0  0
 15 39  1  0  0  0  0
 16 17  1  0  0  0  0
 17 18  1  0  0  0  0
 17 40  1  0  0  0  0
 17 41  1  0  0  0  0
 18 19  1  0  0  0  0
 18 42  1  0  0  0  0
 18 43  1  0  0  0  0
 19 20  2  0  0  0  0
 19 22  1  0  0  0  0
 20 21  1  0  0  0  0
 21 16  1  0  0  0  0
 21 44  1  0  0  0  0
 21 45  1  0  0  0  0
 22 23  2  0  0  0  0
 22 46  1  0  0  0  0
 23 24  1  0  0  0  0
 23 47  1  0  0  0  0
 24 25  2  0  0  0  0
 24 48  1  0  0  0  0
 25 20  1  0  0  0  0
 25 49  1  0  0  0  0
 26 27  1  0  0  0  0
 26 50  1  0  0  0  0
 26 51  1  0  0  0  0
 27 28  1  0  0  0  0
 28  8  1  0  0  0  0
 28 52  1  0  0  0  0
 28 53  1  0  0  0  0
M  END
>  <Mol_ID>
2558

>  <Formula>
C20H25N5O3

>  <MolWeight>
383.4442

>  <Cat>
S7748

>  <Name>
EPZ015666 (GSK3235025)

>  <Synonyms>
GSK3235025

>  <Target>
Histone Methyltransferase,PRMT

>  <Form>
free base

>  <CAS>
1616391-65-1

>  <URL>
http://selleckchem.com/products/epz015666.html

$$$$
