Esmolol hydrochloride.cdx
 OpenBabel08302522043D

 46 46  0  0  0  0  0  0  0  0999 V2000
    1.5827   -0.0717   -0.1696 C   0  0  0  0  0  0  0  0  0  0  0  0
    0.9141   -1.1411    0.4330 C   0  0  0  0  0  0  0  0  0  0  0  0
   -0.3068   -0.8787    1.0751 C   0  0  0  0  0  0  0  0  0  0  0  0
   -0.8878    0.3937    1.0464 C   0  0  0  0  0  0  0  0  0  0  0  0
   -0.2601    1.4325    0.3690 C   0  0  0  0  0  0  0  0  0  0  0  0
    0.9944    1.2014   -0.2034 C   0  0  0  0  0  0  0  0  0  0  0  0
   -0.8068    2.6597    0.1157 O   0  0  0  0  0  0  0  0  0  0  0  0
   -1.8159    3.1554    0.9937 C   0  0  0  0  0  0  0  0  0  0  0  0
   -3.1919    3.3324    0.3200 C   0  0  3  0  0  0  0  0  0  0  0  0
   -3.8136    2.0269   -0.2368 C   0  0  0  0  0  0  0  0  0  0  0  0
   -4.0871    3.9185    1.2882 O   0  0  0  0  0  0  0  0  0  0  0  0
   -5.1655    2.2883   -0.7559 N   0  0  0  0  0  0  0  0  0  0  0  0
   -5.8769    1.1259   -1.2934 C   0  0  0  0  0  0  0  0  0  0  0  0
   -6.1569    0.0346   -0.2584 C   0  0  0  0  0  0  0  0  0  0  0  0
   -7.2086    1.6146   -1.8775 C   0  0  0  0  0  0  0  0  0  0  0  0
    1.3339   -2.5885    0.2891 C   0  0  0  0  0  0  0  0  0  0  0  0
    2.8009   -2.8900   -0.0104 C   0  0  0  0  0  0  0  0  0  0  0  0
    3.0022   -4.3819   -0.1903 C   0  0  0  0  0  0  0  0  0  0  0  0
    4.3041   -4.6260   -0.5134 O   0  0  0  0  0  0  0  0  0  0  0  0
    2.1343   -5.2307   -0.0657 O   0  0  0  0  0  0  0  0  0  0  0  0
    4.6561   -5.9943   -0.7338 C   0  0  0  0  0  0  0  0  0  0  0  0
    2.5385   -0.2090   -0.6675 H   0  0  0  0  0  0  0  0  0  0  0  0
   -0.8495   -1.6880    1.5608 H   0  0  0  0  0  0  0  0  0  0  0  0
   -1.8573    0.5127    1.5133 H   0  0  0  0  0  0  0  0  0  0  0  0
    1.5078    2.0120   -0.7165 H   0  0  0  0  0  0  0  0  0  0  0  0
   -1.8973    2.6041    1.9376 H   0  0  0  0  0  0  0  0  0  0  0  0
   -1.4770    4.1534    1.3033 H   0  0  0  0  0  0  0  0  0  0  0  0
   -3.0916    4.0496   -0.5037 H   0  0  0  0  0  0  0  0  0  0  0  0
   -3.1795    1.6159   -1.0286 H   0  0  0  0  0  0  0  0  0  0  0  0
   -3.8768    1.3022    0.5804 H   0  0  0  0  0  0  0  0  0  0  0  0
   -4.5345    3.1922    1.7543 H   0  0  0  0  0  0  0  0  0  0  0  0
   -5.7278    2.7883   -0.0678 H   0  0  0  0  0  0  0  0  0  0  0  0
   -5.2911    0.6934   -2.1131 H   0  0  0  0  0  0  0  0  0  0  0  0
   -6.7492    0.4163    0.5804 H   0  0  0  0  0  0  0  0  0  0  0  0
   -6.7193   -0.7880   -0.7159 H   0  0  0  0  0  0  0  0  0  0  0  0
   -5.2329   -0.3964    0.1383 H   0  0  0  0  0  0  0  0  0  0  0  0
   -7.0437    2.2881   -2.7255 H   0  0  0  0  0  0  0  0  0  0  0  0
   -7.8126    0.7732   -2.2360 H   0  0  0  0  0  0  0  0  0  0  0  0
   -7.8052    2.1521   -1.1303 H   0  0  0  0  0  0  0  0  0  0  0  0
    1.0512   -3.1265    1.2040 H   0  0  0  0  0  0  0  0  0  0  0  0
    0.7195   -3.0070   -0.5201 H   0  0  0  0  0  0  0  0  0  0  0  0
    3.1159   -2.3994   -0.9365 H   0  0  0  0  0  0  0  0  0  0  0  0
    3.4344   -2.5481    0.8150 H   0  0  0  0  0  0  0  0  0  0  0  0
    5.2497   -6.3461    0.1164 H   0  0  0  0  0  0  0  0  0  0  0  0
    3.7987   -6.6539   -0.8800 H   0  0  0  0  0  0  0  0  0  0  0  0
    5.2805   -6.0414   -1.6331 H   0  0  0  0  0  0  0  0  0  0  0  0
  1  2  2  0  0  0  0
  1 22  1  0  0  0  0
  2  3  1  0  0  0  0
  2 16  1  0  0  0  0
  3  4  2  0  0  0  0
  3 23  1  0  0  0  0
  4  5  1  0  0  0  0
  4 24  1  0  0  0  0
  5  6  2  0  0  0  0
  5  7  1  0  0  0  0
  6  1  1  0  0  0  0
  6 25  1  0  0  0  0
  7  8  1  0  0  0  0
  8  9  1  0  0  0  0
  8 26  1  0  0  0  0
  8 27  1  0  0  0  0
  9 10  1  0  0  0  0
  9 11  1  0  0  0  0
  9 28  1  0  0  0  0
 10 12  1  0  0  0  0
 10 29  1  0  0  0  0
 10 30  1  0  0  0  0
 11 31  1  0  0  0  0
 12 13  1  0  0  0  0
 12 32  1  0  0  0  0
 13 14  1  0  0  0  0
 13 15  1  0  0  0  0
 13 33  1  0  0  0  0
 14 34  1  0  0  0  0
 14 35  1  0  0  0  0
 14 36  1  0  0  0  0
 15 37  1  0  0  0  0
 15 38  1  0  0  0  0
 15 39  1  0  0  0  0
 16 17  1  0  0  0  0
 16 40  1  0  0  0  0
 16 41  1  0  0  0  0
 17 18  1  0  0  0  0
 17 42  1  0  0  0  0
 17 43  1  0  0  0  0
 18 19  1  0  0  0  0
 18 20  2  0  0  0  0
 19 21  1  0  0  0  0
 21 44  1  0  0  0  0
 21 45  1  0  0  0  0
 21 46  1  0  0  0  0
M  END
>  <Mol_ID>
1324

>  <Formula>
C16H26ClNO4

>  <MolWeight>
331.83494

>  <Cat>
S4100

>  <Name>
Esmolol HCl

>  <Synonyms>
ASL8052

>  <Target>
Adrenergic Receptor

>  <Form>
Hydrochloride

>  <CAS>
81161-17-3

>  <URL>
http://selleckchem.com/products/esmolol-hcl.html

$$$$
