Esmolol
 OpenBabel08302520343D

 46 46  0  0  0  0  0  0  0  0999 V2000
    0.3479    3.6009   -2.2646 C   0  0  0  0  0  0  0  0  0  0  0  0
   -0.8222    2.6414   -2.3032 C   0  0  0  0  0  0  0  0  0  0  0  0
   -0.9702    1.8891   -0.9801 C   0  0  0  0  0  0  0  0  0  0  0  0
    1.0891    3.7805   -1.3077 O   0  0  0  0  0  0  0  0  0  0  0  0
    0.4603    4.2324   -3.4687 O   0  0  0  0  0  0  0  0  0  0  0  0
   -1.9045    0.7057   -1.0379 C   0  0  0  0  0  0  0  0  0  0  0  0
   -1.3941   -0.5347   -1.4418 C   0  0  0  0  0  0  0  0  0  0  0  0
   -2.1962   -1.6779   -1.4563 C   0  0  0  0  0  0  0  0  0  0  0  0
   -3.5358   -1.6158   -1.0864 C   0  0  0  0  0  0  0  0  0  0  0  0
   -4.0661   -0.3760   -0.7039 C   0  0  0  0  0  0  0  0  0  0  0  0
   -3.2591    0.7781   -0.6777 C   0  0  0  0  0  0  0  0  0  0  0  0
   -4.3745   -2.6993   -1.1490 O   0  0  0  0  0  0  0  0  0  0  0  0
   -3.8080   -3.9540   -0.7423 C   0  0  0  0  0  0  0  0  0  0  0  0
   -3.8141   -5.0564   -1.8279 C   0  0  3  0  0  0  0  0  0  0  0  0
   -3.1035   -4.7334   -3.1723 C   0  0  0  0  0  0  0  0  0  0  0  0
   -3.1190   -5.9273   -4.0400 N   0  0  0  0  0  0  0  0  0  0  0  0
   -0.9562   -5.5390   -5.2687 C   0  0  0  0  0  0  0  0  0  0  0  0
   -2.4599   -5.8115   -5.3430 C   0  0  0  0  0  0  0  0  0  0  0  0
   -2.6761   -7.1270   -6.1101 C   0  0  0  0  0  0  0  0  0  0  0  0
   -3.1979   -6.2337   -1.2523 O   0  0  0  0  0  0  0  0  0  0  0  0
    1.5414    5.1635   -3.5946 C   0  0  0  0  0  0  0  0  0  0  0  0
   -1.7346    3.2134   -2.5129 H   0  0  0  0  0  0  0  0  0  0  0  0
   -0.6551    1.9385   -3.1304 H   0  0  0  0  0  0  0  0  0  0  0  0
    0.0132    1.5164   -0.6615 H   0  0  0  0  0  0  0  0  0  0  0  0
   -1.2856    2.5782   -0.1893 H   0  0  0  0  0  0  0  0  0  0  0  0
   -0.3473   -0.6275   -1.7376 H   0  0  0  0  0  0  0  0  0  0  0  0
   -1.7427   -2.6078   -1.7687 H   0  0  0  0  0  0  0  0  0  0  0  0
   -5.1127   -0.3029   -0.4049 H   0  0  0  0  0  0  0  0  0  0  0  0
   -3.6939    1.7233   -0.3563 H   0  0  0  0  0  0  0  0  0  0  0  0
   -2.8185   -3.8620   -0.2753 H   0  0  0  0  0  0  0  0  0  0  0  0
   -4.4407   -4.3173    0.0804 H   0  0  0  0  0  0  0  0  0  0  0  0
   -4.8554   -5.3161   -2.0459 H   0  0  0  0  0  0  0  0  0  0  0  0
   -3.6001   -3.8941   -3.6694 H   0  0  0  0  0  0  0  0  0  0  0  0
   -2.0645   -4.4632   -2.9640 H   0  0  0  0  0  0  0  0  0  0  0  0
   -2.7963   -6.7469   -3.5251 H   0  0  0  0  0  0  0  0  0  0  0  0
   -0.4254   -6.3368   -4.7387 H   0  0  0  0  0  0  0  0  0  0  0  0
   -0.5333   -5.4780   -6.2806 H   0  0  0  0  0  0  0  0  0  0  0  0
   -0.7377   -4.5881   -4.7773 H   0  0  0  0  0  0  0  0  0  0  0  0
   -2.9372   -5.0089   -5.9159 H   0  0  0  0  0  0  0  0  0  0  0  0
   -3.7380   -7.2977   -6.3138 H   0  0  0  0  0  0  0  0  0  0  0  0
   -2.1534   -7.1082   -7.0735 H   0  0  0  0  0  0  0  0  0  0  0  0
   -2.2947   -7.9886   -5.5489 H   0  0  0  0  0  0  0  0  0  0  0  0
   -2.2432   -6.1805   -1.4286 H   0  0  0  0  0  0  0  0  0  0  0  0
    1.1958    6.1620   -3.3085 H   0  0  0  0  0  0  0  0  0  0  0  0
    2.4148    4.8790   -3.0007 H   0  0  0  0  0  0  0  0  0  0  0  0
    1.8431    5.1896   -4.6462 H   0  0  0  0  0  0  0  0  0  0  0  0
  1  2  1  0  0  0  0
  1  4  2  0  0  0  0
  1  5  1  0  0  0  0
  2  3  1  0  0  0  0
  2 22  1  0  0  0  0
  2 23  1  0  0  0  0
  3  6  1  0  0  0  0
  3 24  1  0  0  0  0
  3 25  1  0  0  0  0
  5 21  1  0  0  0  0
  6  7  2  0  0  0  0
  6 11  1  0  0  0  0
  7  8  1  0  0  0  0
  7 26  1  0  0  0  0
  8  9  2  0  0  0  0
  8 27  1  0  0  0  0
  9 10  1  0  0  0  0
  9 12  1  0  0  0  0
 10 11  2  0  0  0  0
 10 28  1  0  0  0  0
 11 29  1  0  0  0  0
 12 13  1  0  0  0  0
 13 14  1  0  0  0  0
 13 30  1  0  0  0  0
 13 31  1  0  0  0  0
 14 15  1  0  0  0  0
 14 20  1  0  0  0  0
 14 32  1  0  0  0  0
 15 16  1  0  0  0  0
 15 33  1  0  0  0  0
 15 34  1  0  0  0  0
 16 18  1  0  0  0  0
 16 35  1  0  0  0  0
 17 18  1  0  0  0  0
 17 36  1  0  0  0  0
 17 37  1  0  0  0  0
 17 38  1  0  0  0  0
 18 19  1  0  0  0  0
 18 39  1  0  0  0  0
 19 40  1  0  0  0  0
 19 41  1  0  0  0  0
 19 42  1  0  0  0  0
 20 43  1  0  0  0  0
 21 44  1  0  0  0  0
 21 45  1  0  0  0  0
 21 46  1  0  0  0  0
M  END
>  <Mol_ID>
3416

>  <Formula>
C16H25NO4

>  <MolWeight>
295.374

>  <Cat>
S5778

>  <Name>
Esmolol

>  <Synonyms>
N/A

>  <Target>
Adrenergic Receptor

>  <Form>
Free Base

>  <CAS>
81147-92-4

>  <URL>
http://www.selleckchem.com/products/esmolol.html

$$$$
