ESTROGENIC SUBSTANCE (estrone).cdx
 OpenBabel08302520403D

 42 45  0  0  0  0  0  0  0  0999 V2000
    2.6602   -4.8139   -1.5710 C   0  0  0  0  0  0  0  0  0  0  0  0
    3.5924   -4.7068   -0.5498 C   0  0  0  0  0  0  0  0  0  0  0  0
    3.2965   -4.0114    0.6164 C   0  0  0  0  0  0  0  0  0  0  0  0
    2.0832   -3.3167    0.7335 C   0  0  0  0  0  0  0  0  0  0  0  0
    1.1522   -3.3623   -0.3229 C   0  0  0  0  0  0  0  0  0  0  0  0
    1.4382   -4.1553   -1.4495 C   0  0  0  0  0  0  0  0  0  0  0  0
    1.8178   -2.4839    1.9597 C   0  0  0  0  0  0  0  0  0  0  0  0
    1.1391   -1.1652    1.6003 C   0  0  0  0  0  0  0  0  0  0  0  0
   -0.1563   -1.4131    0.8278 C   0  0  2  0  0  0  0  0  0  0  0  0
    0.0696   -2.3097   -0.4296 C   0  0  2  0  0  0  0  0  0  0  0  0
   -0.7661   -0.1293    0.2567 C   0  0  1  0  0  0  0  0  0  0  0  0
   -2.1639   -0.3732   -0.3648 C   0  0  2  0  0  0  0  0  0  0  0  0
   -2.0415   -1.4006   -1.4977 C   0  0  0  0  0  0  0  0  0  0  0  0
   -1.3006   -2.6824   -1.0394 C   0  0  0  0  0  0  0  0  0  0  0  0
   -0.9152    1.1502    1.0588 C   0  0  0  0  0  0  0  0  0  0  0  0
   -1.6139    2.0533    0.0257 C   0  0  0  0  0  0  0  0  0  0  0  0
   -2.4550    1.0651   -0.7789 C   0  0  0  0  0  0  0  0  0  0  0  0
    4.8424   -5.2361   -0.6807 O   0  0  0  0  0  0  0  0  0  0  0  0
   -3.2652   -0.7894    0.6229 C   0  0  0  0  0  0  0  0  0  0  0  0
   -3.2587    1.3909   -1.6381 O   0  0  0  0  0  0  0  0  0  0  0  0
    2.8810   -5.3553   -2.4851 H   0  0  0  0  0  0  0  0  0  0  0  0
    4.0466   -3.9516    1.4007 H   0  0  0  0  0  0  0  0  0  0  0  0
    0.7568   -4.1851   -2.2963 H   0  0  0  0  0  0  0  0  0  0  0  0
    2.7537   -2.2645    2.4865 H   0  0  0  0  0  0  0  0  0  0  0  0
    1.1881   -3.0654    2.6483 H   0  0  0  0  0  0  0  0  0  0  0  0
    0.9238   -0.6088    2.5208 H   0  0  0  0  0  0  0  0  0  0  0  0
    1.8227   -0.5500    1.0030 H   0  0  0  0  0  0  0  0  0  0  0  0
   -0.8550   -1.9121    1.5146 H   0  0  0  0  0  0  0  0  0  0  0  0
    0.5461   -1.6584   -1.1870 H   0  0  0  0  0  0  0  0  0  0  0  0
   -0.0853    0.1725   -0.5588 H   0  0  0  0  0  0  0  0  0  0  0  0
   -1.4891   -0.9591   -2.3383 H   0  0  0  0  0  0  0  0  0  0  0  0
   -3.0290   -1.6648   -1.8960 H   0  0  0  0  0  0  0  0  0  0  0  0
   -1.9021   -3.2336   -0.3066 H   0  0  0  0  0  0  0  0  0  0  0  0
   -1.1985   -3.3421   -1.9064 H   0  0  0  0  0  0  0  0  0  0  0  0
    0.0469    1.5728    1.3655 H   0  0  0  0  0  0  0  0  0  0  0  0
   -1.5284    1.0112    1.9533 H   0  0  0  0  0  0  0  0  0  0  0  0
   -2.2280    2.8213    0.4964 H   0  0  0  0  0  0  0  0  0  0  0  0
   -0.8779    2.5028   -0.6492 H   0  0  0  0  0  0  0  0  0  0  0  0
    4.9723   -5.4729   -1.6142 H   0  0  0  0  0  0  0  0  0  0  0  0
   -3.0507   -1.7424    1.1118 H   0  0  0  0  0  0  0  0  0  0  0  0
   -4.2224   -0.9017    0.1013 H   0  0  0  0  0  0  0  0  0  0  0  0
   -3.4322   -0.0433    1.4055 H   0  0  0  0  0  0  0  0  0  0  0  0
  1  2  2  0  0  0  0
  1 21  1  0  0  0  0
  2  3  1  0  0  0  0
  2 18  1  0  0  0  0
  3  4  2  0  0  0  0
  3 22  1  0  0  0  0
  4  5  1  0  0  0  0
  4  7  1  0  0  0  0
  5  6  2  0  0  0  0
  6  1  1  0  0  0  0
  6 23  1  0  0  0  0
  7  8  1  0  0  0  0
  7 24  1  0  0  0  0
  7 25  1  0  0  0  0
  8 26  1  0  0  0  0
  8 27  1  0  0  0  0
  9  8  1  0  0  0  0
  9 10  1  0  0  0  0
  9 11  1  0  0  0  0
  9 28  1  1  0  0  0
 10  5  1  0  0  0  0
 10 14  1  0  0  0  0
 10 29  1  6  0  0  0
 11 12  1  0  0  0  0
 11 15  1  0  0  0  0
 11 30  1  6  0  0  0
 12 13  1  0  0  0  0
 12 19  1  1  0  0  0
 13 14  1  0  0  0  0
 13 31  1  0  0  0  0
 13 32  1  0  0  0  0
 14 33  1  0  0  0  0
 14 34  1  0  0  0  0
 15 16  1  0  0  0  0
 15 35  1  0  0  0  0
 15 36  1  0  0  0  0
 16 17  1  0  0  0  0
 16 37  1  0  0  0  0
 16 38  1  0  0  0  0
 17 12  1  0  0  0  0
 17 20  2  0  0  0  0
 18 39  1  0  0  0  0
 19 40  1  0  0  0  0
 19 41  1  0  0  0  0
 19 42  1  0  0  0  0
M  END
>  <Mol_ID>
381

>  <Formula>
C18H22O2

>  <MolWeight>
270.36608

>  <Cat>
S1665

>  <Name>
Estrone

>  <Synonyms>
N/A

>  <Target>
Estrogen/progestogen Receptor

>  <Form>
free base

>  <CAS>
53-16-7

>  <URL>
http://selleckchem.com/products/Estrone.html

$$$$
