Estrogen receptor modulator 1
 OpenBabel08302521313D

 27 29  0  0  0  0  0  0  0  0999 V2000
    1.8917    1.0370    0.0108 S   0  0  0  0  0  0  0  0  0  0  0  0
   -3.2703    0.9422   -0.0157 O   0  0  0  0  0  0  0  0  0  0  0  0
    8.2803   -1.1180    0.4012 O   0  0  0  0  0  0  0  0  0  0  0  0
    0.3855   -1.0535    0.0058 C   0  0  0  0  0  0  0  0  0  0  0  0
    2.6779   -0.4845    0.0677 C   0  0  0  0  0  0  0  0  0  0  0  0
    0.3194    0.3398    0.0007 C   0  0  0  0  0  0  0  0  0  0  0  0
    1.7451   -1.5058    0.0387 C   0  0  0  0  0  0  0  0  0  0  0  0
    4.1489   -0.5946    0.1275 C   0  0  0  0  0  0  0  0  0  0  0  0
   -0.8264   -1.7865   -0.0102 C   0  0  0  0  0  0  0  0  0  0  0  0
   -0.9149    1.0168   -0.0112 C   0  0  0  0  0  0  0  0  0  0  0  0
    4.9491    0.3789    0.7502 C   0  0  0  0  0  0  0  0  0  0  0  0
    4.7884   -1.7250   -0.4111 C   0  0  0  0  0  0  0  0  0  0  0  0
   -2.0862    0.2625   -0.0164 C   0  0  0  0  0  0  0  0  0  0  0  0
   -2.0560   -1.1223   -0.0194 C   0  0  0  0  0  0  0  0  0  0  0  0
    6.3375    0.2229    0.8433 C   0  0  0  0  0  0  0  0  0  0  0  0
    6.1732   -1.8859   -0.3155 C   0  0  0  0  0  0  0  0  0  0  0  0
    6.9357   -0.9142    0.3150 C   0  0  0  0  0  0  0  0  0  0  0  0
   -3.9986    0.3000    0.0031 H   0  0  0  0  0  0  0  0  0  0  0  0
    8.6760   -0.3757    0.8865 H   0  0  0  0  0  0  0  0  0  0  0  0
    2.0157   -2.5541    0.0650 H   0  0  0  0  0  0  0  0  0  0  0  0
   -0.8001   -2.8732   -0.0084 H   0  0  0  0  0  0  0  0  0  0  0  0
   -0.9571    2.1011   -0.0098 H   0  0  0  0  0  0  0  0  0  0  0  0
    4.5036    1.2677    1.1911 H   0  0  0  0  0  0  0  0  0  0  0  0
    4.2156   -2.4994   -0.9152 H   0  0  0  0  0  0  0  0  0  0  0  0
   -2.9714   -1.7071   -0.0266 H   0  0  0  0  0  0  0  0  0  0  0  0
    6.9242    0.9913    1.3363 H   0  0  0  0  0  0  0  0  0  0  0  0
    6.6503   -2.7702   -0.7280 H   0  0  0  0  0  0  0  0  0  0  0  0
  1  5  1  0  0  0  0
  1  6  1  0  0  0  0
  2 13  1  0  0  0  0
  2 18  1  0  0  0  0
  3 17  1  0  0  0  0
  3 19  1  0  0  0  0
  4  6  2  0  0  0  0
  4  7  1  0  0  0  0
  4  9  1  0  0  0  0
  5  7  2  0  0  0  0
  5  8  1  0  0  0  0
  6 10  1  0  0  0  0
  7 20  1  0  0  0  0
  8 11  2  0  0  0  0
  8 12  1  0  0  0  0
  9 14  2  0  0  0  0
  9 21  1  0  0  0  0
 10 13  2  0  0  0  0
 10 22  1  0  0  0  0
 11 15  1  0  0  0  0
 11 23  1  0  0  0  0
 12 16  2  0  0  0  0
 12 24  1  0  0  0  0
 13 14  1  0  0  0  0
 14 25  1  0  0  0  0
 15 17  2  0  0  0  0
 15 26  1  0  0  0  0
 16 17  1  0  0  0  0
 16 27  1  0  0  0  0
M  END
>  <Mol_ID>
5755

>  <Formula>
C14H10O2S

>  <MolWeight>
242.293

>  <Cat>
S0503

>  <Name>
Estrogen receptor modulator 1

>  <Synonyms>
N/A

>  <Target>
Estrogen/progestogen Receptor

>  <Form>
Free Base

>  <CAS>
63676-22-2

>  <URL>
http://www.selleckchem.com/products/estrogen-receptor-modulator-1.html

$$$$
