ETC-159
 OpenBabel08302521223D

 46 49  0  0  0  0  0  0  0  0999 V2000
    1.2267    0.4574   -1.4923 O   0  0  0  0  0  0  0  0  0  0  0  0
    2.4125    0.3258   -1.1732 C   0  0  0  0  0  0  0  0  0  0  0  0
    3.1056   -0.8764   -1.4045 N   0  0  0  0  0  0  0  0  0  0  0  0
    2.3932   -1.9760   -2.0340 C   0  0  0  0  0  0  0  0  0  0  0  0
    4.4554   -1.1015   -1.1296 C   0  0  0  0  0  0  0  0  0  0  0  0
    5.0928    0.0031   -0.5023 C   0  0  0  0  0  0  0  0  0  0  0  0
    6.3687    0.1903   -0.0628 N   0  0  0  0  0  0  0  0  0  0  0  0
    7.4522   -0.7753   -0.0655 C   0  0  0  0  0  0  0  0  0  0  0  0
    8.2934   -0.6897   -1.3173 C   0  0  0  0  0  0  0  0  0  0  0  0
    7.8050   -1.4079   -2.3910 N   0  0  0  0  0  0  0  0  0  0  0  0
    8.4461   -1.4249   -3.6359 C   0  0  0  0  0  0  0  0  0  0  0  0
    7.6791   -1.3095   -4.7339 N   0  0  0  0  0  0  0  0  0  0  0  0
    8.2638   -1.2848   -5.9892 N   0  0  0  0  0  0  0  0  0  0  0  0
    9.5997   -1.4496   -6.1384 C   0  0  0  0  0  0  0  0  0  0  0  0
   10.1350   -1.4524   -7.5167 C   0  0  0  0  0  0  0  0  0  0  0  0
   11.4817   -1.1418   -7.7957 C   0  0  0  0  0  0  0  0  0  0  0  0
   11.9985   -1.2160   -9.0936 C   0  0  0  0  0  0  0  0  0  0  0  0
   11.1748   -1.5879  -10.1502 C   0  0  0  0  0  0  0  0  0  0  0  0
    9.8325   -1.8664   -9.9117 C   0  0  0  0  0  0  0  0  0  0  0  0
    9.3196   -1.7936   -8.6118 C   0  0  0  0  0  0  0  0  0  0  0  0
   10.3889   -1.6573   -5.0133 C   0  0  0  0  0  0  0  0  0  0  0  0
    9.8104   -1.6217   -3.7453 C   0  0  0  0  0  0  0  0  0  0  0  0
    9.3160   -0.0053   -1.3392 O   0  0  0  0  0  0  0  0  0  0  0  0
    6.4355    1.4631    0.4427 C   0  0  0  0  0  0  0  0  0  0  0  0
    5.2744    2.0830    0.3461 N   0  0  0  0  0  0  0  0  0  0  0  0
    4.4477    1.1755   -0.2436 C   0  0  0  0  0  0  0  0  0  0  0  0
    3.1282    1.3673   -0.5750 N   0  0  0  0  0  0  0  0  0  0  0  0
    2.4936    2.6487   -0.3212 C   0  0  0  0  0  0  0  0  0  0  0  0
    5.0712   -2.1210   -1.4285 O   0  0  0  0  0  0  0  0  0  0  0  0
    2.9101   -2.2510   -2.9604 H   0  0  0  0  0  0  0  0  0  0  0  0
    2.4120   -2.8401   -1.3607 H   0  0  0  0  0  0  0  0  0  0  0  0
    1.3557   -1.7297   -2.2686 H   0  0  0  0  0  0  0  0  0  0  0  0
    8.0889   -0.5725    0.8034 H   0  0  0  0  0  0  0  0  0  0  0  0
    7.0437   -1.7806    0.0667 H   0  0  0  0  0  0  0  0  0  0  0  0
    6.8072   -1.6030   -2.4296 H   0  0  0  0  0  0  0  0  0  0  0  0
   12.1569   -0.8288   -7.0022 H   0  0  0  0  0  0  0  0  0  0  0  0
   13.0452   -0.9848   -9.2751 H   0  0  0  0  0  0  0  0  0  0  0  0
   11.5765   -1.6555  -11.1577 H   0  0  0  0  0  0  0  0  0  0  0  0
    9.1813   -2.1485  -10.7351 H   0  0  0  0  0  0  0  0  0  0  0  0
    8.2663   -2.0246   -8.4561 H   0  0  0  0  0  0  0  0  0  0  0  0
   11.4484   -1.8726   -5.1006 H   0  0  0  0  0  0  0  0  0  0  0  0
   10.4265   -1.7961   -2.8695 H   0  0  0  0  0  0  0  0  0  0  0  0
    7.3369    1.8853    0.8648 H   0  0  0  0  0  0  0  0  0  0  0  0
    2.5314    2.8590    0.7563 H   0  0  0  0  0  0  0  0  0  0  0  0
    3.0351    3.4272   -0.8652 H   0  0  0  0  0  0  0  0  0  0  0  0
    1.4513    2.6584   -0.6428 H   0  0  0  0  0  0  0  0  0  0  0  0
  1  2  2  0  0  0  0
  2  3  1  0  0  0  0
  2 27  1  0  0  0  0
  3  4  1  0  0  0  0
  3  5  1  0  0  0  0
  4 30  1  0  0  0  0
  4 31  1  0  0  0  0
  4 32  1  0  0  0  0
  5  6  1  0  0  0  0
  5 29  2  0  0  0  0
  6  7  1  0  0  0  0
  6 26  2  0  0  0  0
  7  8  1  0  0  0  0
  7 24  1  0  0  0  0
  8  9  1  0  0  0  0
  8 33  1  0  0  0  0
  8 34  1  0  0  0  0
  9 10  1  0  0  0  0
  9 23  2  0  0  0  0
 10 11  1  0  0  0  0
 10 35  1  0  0  0  0
 11 12  2  0  0  0  0
 11 22  1  0  0  0  0
 12 13  1  0  0  0  0
 13 14  2  0  0  0  0
 14 15  1  0  0  0  0
 14 21  1  0  0  0  0
 15 16  2  0  0  0  0
 15 20  1  0  0  0  0
 16 17  1  0  0  0  0
 16 36  1  0  0  0  0
 17 18  2  0  0  0  0
 17 37  1  0  0  0  0
 18 19  1  0  0  0  0
 18 38  1  0  0  0  0
 19 20  2  0  0  0  0
 19 39  1  0  0  0  0
 20 40  1  0  0  0  0
 21 22  2  0  0  0  0
 21 41  1  0  0  0  0
 22 42  1  0  0  0  0
 24 25  2  0  0  0  0
 24 43  1  0  0  0  0
 25 26  1  0  0  0  0
 26 27  1  0  0  0  0
 27 28  1  0  0  0  0
 28 44  1  0  0  0  0
 28 45  1  0  0  0  0
 28 46  1  0  0  0  0
M  END
>  <Mol_ID>
4740

>  <Formula>
C19H17N7O3

>  <MolWeight>
391.38338

>  <Cat>
S6616

>  <Name>
ETC-159

>  <Synonyms>
ETC-1922159

>  <Target>
PORCN

>  <Form>
Free Base

>  <CAS>
1638250-96-0

>  <URL>
http://www.selleck.cn/products/etc-159.html

$$$$
