(Ethoxymethyl)benzene
 OpenBabel08302521363D

 22 22  0  0  0  0  0  0  0  0999 V2000
    0.9932   -0.0658    0.0127 C   0  0  0  0  0  0  0  0  0  0  0  0
    0.4343    0.5908    1.1554 O   0  0  0  0  0  0  0  0  0  0  0  0
    0.9247    0.0393    2.3731 C   0  0  0  0  0  0  0  0  0  0  0  0
    0.3102    0.7634    3.5646 C   0  0  0  0  0  0  0  0  0  0  0  0
    0.4627    0.5817   -1.2428 C   0  0  0  0  0  0  0  0  0  0  0  0
    0.7166    1.9349   -1.5124 C   0  0  0  0  0  0  0  0  0  0  0  0
   -0.2836   -0.1614   -2.1716 C   0  0  0  0  0  0  0  0  0  0  0  0
    0.2094    2.5402   -2.6616 C   0  0  0  0  0  0  0  0  0  0  0  0
   -0.7931    0.4467   -3.3214 C   0  0  0  0  0  0  0  0  0  0  0  0
   -0.5473    1.7968   -3.5646 C   0  0  0  0  0  0  0  0  0  0  0  0
    0.7134   -1.1272    0.0341 H   0  0  0  0  0  0  0  0  0  0  0  0
    2.0881    0.0024    0.0230 H   0  0  0  0  0  0  0  0  0  0  0  0
    0.6818   -1.0264    2.4231 H   0  0  0  0  0  0  0  0  0  0  0  0
    2.0138    0.1602    2.4107 H   0  0  0  0  0  0  0  0  0  0  0  0
   -0.7697    0.5925    3.6233 H   0  0  0  0  0  0  0  0  0  0  0  0
    0.7638    0.4187    4.4962 H   0  0  0  0  0  0  0  0  0  0  0  0
    0.4601    1.8479    3.4810 H   0  0  0  0  0  0  0  0  0  0  0  0
    1.2984    2.5277   -0.8058 H   0  0  0  0  0  0  0  0  0  0  0  0
   -0.4903   -1.2120   -1.9924 H   0  0  0  0  0  0  0  0  0  0  0  0
    0.3988    3.5941   -2.8478 H   0  0  0  0  0  0  0  0  0  0  0  0
   -1.3866   -0.1339   -4.0227 H   0  0  0  0  0  0  0  0  0  0  0  0
   -0.9482    2.2694   -4.4559 H   0  0  0  0  0  0  0  0  0  0  0  0
  1  2  1  0  0  0  0
  1  5  1  0  0  0  0
  1 11  1  0  0  0  0
  1 12  1  0  0  0  0
  2  3  1  0  0  0  0
  3  4  1  0  0  0  0
  3 13  1  0  0  0  0
  3 14  1  0  0  0  0
  4 15  1  0  0  0  0
  4 16  1  0  0  0  0
  4 17  1  0  0  0  0
  5  6  2  0  0  0  0
  5  7  1  0  0  0  0
  6  8  1  0  0  0  0
  6 18  1  0  0  0  0
  7  9  2  0  0  0  0
  7 19  1  0  0  0  0
  8 10  2  0  0  0  0
  8 20  1  0  0  0  0
  9 10  1  0  0  0  0
  9 21  1  0  0  0  0
 10 22  1  0  0  0  0
M  END
>  <Mol_ID>
7216

>  <Formula>
C9H12O

>  <MolWeight>
136.19098

>  <Cat>
E4222

>  <Name>
(Ethoxymethyl)benzene

>  <Synonyms>
Benzyl ethyl ether

>  <Target>
Others

>  <Form>
Free base

>  <CAS>
539-30-0

>  <URL>
https://www.selleckchem.com/products/ethoxymethyl-benzene.html

$$$$
