Ethotoin
 OpenBabel08302521223D

 27 28  0  0  0  0  0  0  0  0999 V2000
   -0.6778   -1.3501    0.0374 C   0  0  3  0  0  0  0  0  0  0  0  0
   -1.1584   -2.1395   -1.1551 C   0  0  0  0  0  0  0  0  0  0  0  0
   -1.1479    0.1094    0.0808 C   0  0  0  0  0  0  0  0  0  0  0  0
    0.7485   -1.1604    0.0149 N   0  0  0  0  0  0  0  0  0  0  0  0
   -0.8518   -1.7447   -2.4682 C   0  0  0  0  0  0  0  0  0  0  0  0
   -1.9061   -3.3129   -0.9676 C   0  0  0  0  0  0  0  0  0  0  0  0
   -0.0401    0.9168    0.0451 N   0  0  0  0  0  0  0  0  0  0  0  0
   -2.3114    0.4827    0.1491 O   0  0  0  0  0  0  0  0  0  0  0  0
    1.0978    0.1681    0.0203 C   0  0  0  0  0  0  0  0  0  0  0  0
   -1.2734   -2.5057   -3.5601 C   0  0  0  0  0  0  0  0  0  0  0  0
   -2.3268   -4.0736   -2.0621 C   0  0  0  0  0  0  0  0  0  0  0  0
   -0.0657    2.3639    0.0947 C   0  0  0  0  0  0  0  0  0  0  0  0
    2.2492    0.5676    0.0038 O   0  0  0  0  0  0  0  0  0  0  0  0
   -2.0083   -3.6708   -3.3567 C   0  0  0  0  0  0  0  0  0  0  0  0
    0.0447    2.8782    1.5211 C   0  0  0  0  0  0  0  0  0  0  0  0
   -0.9317   -1.8324    0.9873 H   0  0  0  0  0  0  0  0  0  0  0  0
    1.4406   -1.8951   -0.0337 H   0  0  0  0  0  0  0  0  0  0  0  0
   -0.2716   -0.8430   -2.6546 H   0  0  0  0  0  0  0  0  0  0  0  0
   -2.1668   -3.6511    0.0336 H   0  0  0  0  0  0  0  0  0  0  0  0
   -1.0236   -2.1901   -4.5698 H   0  0  0  0  0  0  0  0  0  0  0  0
   -2.9019   -4.9827   -1.9044 H   0  0  0  0  0  0  0  0  0  0  0  0
    0.7705    2.7508   -0.4981 H   0  0  0  0  0  0  0  0  0  0  0  0
   -1.0007    2.7182   -0.3525 H   0  0  0  0  0  0  0  0  0  0  0  0
   -2.3325   -4.2644   -4.2077 H   0  0  0  0  0  0  0  0  0  0  0  0
    0.9942    2.5757    1.9751 H   0  0  0  0  0  0  0  0  0  0  0  0
   -0.0085    3.9710    1.5374 H   0  0  0  0  0  0  0  0  0  0  0  0
   -0.7641    2.4846    2.1454 H   0  0  0  0  0  0  0  0  0  0  0  0
  1  2  1  0  0  0  0
  1  3  1  0  0  0  0
  1  4  1  0  0  0  0
  1 16  1  0  0  0  0
  2  5  2  0  0  0  0
  2  6  1  0  0  0  0
  3  7  1  0  0  0  0
  3  8  2  0  0  0  0
  4  9  1  0  0  0  0
  4 17  1  0  0  0  0
  5 10  1  0  0  0  0
  5 18  1  0  0  0  0
  6 11  2  0  0  0  0
  6 19  1  0  0  0  0
  7 12  1  0  0  0  0
  7  9  1  0  0  0  0
  9 13  2  0  0  0  0
 10 14  2  0  0  0  0
 10 20  1  0  0  0  0
 11 14  1  0  0  0  0
 11 21  1  0  0  0  0
 12 15  1  0  0  0  0
 12 22  1  0  0  0  0
 12 23  1  0  0  0  0
 14 24  1  0  0  0  0
 15 25  1  0  0  0  0
 15 26  1  0  0  0  0
 15 27  1  0  0  0  0
M  END
>  <Mol_ID>
4621

>  <Formula>
C11H12N2O2

>  <MolWeight>
204.22518

>  <Cat>
S9460

>  <Name>
Ethotoin

>  <Synonyms>
N/A

>  <Target>
Sodium Channel

>  <Form>
Free Base

>  <CAS>
86-35-1

>  <URL>
N/A

$$$$
