Ethyl salicylate
 OpenBabel08302521363D

 22 22  0  0  0  0  0  0  0  0999 V2000
    1.0875   -0.0990   -0.1759 C   0  0  0  0  0  0  0  0  0  0  0  0
    0.5877    1.1558   -0.3312 O   0  0  0  0  0  0  0  0  0  0  0  0
    0.4260   -1.1204   -0.0292 O   0  0  0  0  0  0  0  0  0  0  0  0
   -0.8361    1.2606   -0.1602 C   0  0  0  0  0  0  0  0  0  0  0  0
   -1.5846    0.9321   -1.4398 C   0  0  0  0  0  0  0  0  0  0  0  0
    2.5734   -2.5477    0.2253 O   0  0  0  0  0  0  0  0  0  0  0  0
    2.5746   -0.1298   -0.1461 C   0  0  0  0  0  0  0  0  0  0  0  0
    3.2295   -1.3535    0.0737 C   0  0  0  0  0  0  0  0  0  0  0  0
    3.3462    1.0326   -0.2964 C   0  0  0  0  0  0  0  0  0  0  0  0
    4.6185   -1.4157    0.1563 C   0  0  0  0  0  0  0  0  0  0  0  0
    4.7423    0.9666   -0.2143 C   0  0  0  0  0  0  0  0  0  0  0  0
    5.3770   -0.2538    0.0175 C   0  0  0  0  0  0  0  0  0  0  0  0
   -1.1713    0.6236    0.6662 H   0  0  0  0  0  0  0  0  0  0  0  0
   -1.0480    2.2943    0.1327 H   0  0  0  0  0  0  0  0  0  0  0  0
   -1.2580   -0.0197   -1.8689 H   0  0  0  0  0  0  0  0  0  0  0  0
   -2.6607    0.8799   -1.2490 H   0  0  0  0  0  0  0  0  0  0  0  0
   -1.4070    1.7033   -2.1961 H   0  0  0  0  0  0  0  0  0  0  0  0
    1.6068   -2.3845    0.1555 H   0  0  0  0  0  0  0  0  0  0  0  0
    2.8771    1.9973   -0.4706 H   0  0  0  0  0  0  0  0  0  0  0  0
    5.1092   -2.3700    0.3370 H   0  0  0  0  0  0  0  0  0  0  0  0
    5.3385    1.8703   -0.3246 H   0  0  0  0  0  0  0  0  0  0  0  0
    6.4613   -0.3036    0.0896 H   0  0  0  0  0  0  0  0  0  0  0  0
  1  2  1  0  0  0  0
  1  3  2  0  0  0  0
  1  7  1  0  0  0  0
  2  4  1  0  0  0  0
  4  5  1  0  0  0  0
  4 13  1  0  0  0  0
  4 14  1  0  0  0  0
  5 15  1  0  0  0  0
  5 16  1  0  0  0  0
  5 17  1  0  0  0  0
  6  8  1  0  0  0  0
  6 18  1  0  0  0  0
  7  8  2  0  0  0  0
  7  9  1  0  0  0  0
  8 10  1  0  0  0  0
  9 11  2  0  0  0  0
  9 19  1  0  0  0  0
 10 12  2  0  0  0  0
 10 20  1  0  0  0  0
 11 12  1  0  0  0  0
 11 21  1  0  0  0  0
 12 22  1  0  0  0  0
M  END
>  <Mol_ID>
7289

>  <Formula>
C9H10O3

>  <MolWeight>
166.1739

>  <Cat>
E4317

>  <Name>
Ethyl salicylate

>  <Synonyms>
Ethyl salicylate

>  <Target>
Others

>  <Form>
free base

>  <CAS>
118-61-6

>  <URL>
https://www.selleckchem.com/products/ethyl-salicylate.html

$$$$
