Ethyl methanesulfonate
 OpenBabel08302521383D

 15 14  0  0  0  0  0  0  0  0999 V2000
    1.0587    0.2591    0.1558 O   0  0  0  0  0  0  0  0  0  0  0  0
    0.4017    1.4394   -0.7550 S   0  0  0  0  0  0  0  0  0  0  0  0
    2.4683    0.1062    0.0897 C   0  0  0  0  0  0  0  0  0  0  0  0
   -1.2877    1.1935   -0.2670 C   0  0  0  0  0  0  0  0  0  0  0  0
    0.8509    2.7190   -0.2474 O   0  0  0  0  0  0  0  0  0  0  0  0
    0.5410    1.0761   -2.1491 O   0  0  0  0  0  0  0  0  0  0  0  0
    2.8797   -1.0374    0.9949 C   0  0  0  0  0  0  0  0  0  0  0  0
    2.7700   -0.1085   -0.9410 H   0  0  0  0  0  0  0  0  0  0  0  0
    2.9541    1.0313    0.4175 H   0  0  0  0  0  0  0  0  0  0  0  0
   -1.3757    1.3723    0.8063 H   0  0  0  0  0  0  0  0  0  0  0  0
   -1.9054    1.9068   -0.8165 H   0  0  0  0  0  0  0  0  0  0  0  0
   -1.5840    0.1733   -0.5178 H   0  0  0  0  0  0  0  0  0  0  0  0
    2.4315   -1.9772    0.6557 H   0  0  0  0  0  0  0  0  0  0  0  0
    3.9673   -1.1520    1.0070 H   0  0  0  0  0  0  0  0  0  0  0  0
    2.5296   -0.8677    2.0184 H   0  0  0  0  0  0  0  0  0  0  0  0
  1  2  1  0  0  0  0
  1  3  1  0  0  0  0
  2  4  1  0  0  0  0
  2  5  2  0  0  0  0
  2  6  2  0  0  0  0
  3  7  1  0  0  0  0
  3  8  1  0  0  0  0
  3  9  1  0  0  0  0
  4 10  1  0  0  0  0
  4 11  1  0  0  0  0
  4 12  1  0  0  0  0
  7 13  1  0  0  0  0
  7 14  1  0  0  0  0
  7 15  1  0  0  0  0
M  END
>  <Mol_ID>
7622

>  <Formula>
C3H8O3S

>  <MolWeight>
124.15882

>  <Cat>
E2954

>  <Name>
Ethyl methanesulfonate

>  <Target>
Others

>  <Form>
free base

>  <CAS>
62-50-0

>  <URL>
https://www.selleckchem.com/products/ethyl-methanesulfonate.html

$$$$
