Ethylmalonic acid
 OpenBabel08302521363D

 17 16  0  0  0  0  0  0  0  0999 V2000
    0.8007    0.0197   -0.0498 C   0  0  0  0  0  0  0  0  0  0  0  0
    0.3923   -0.4573    1.3139 C   0  0  0  0  0  0  0  0  0  0  0  0
    0.2753    1.3856   -0.4297 C   0  0  0  0  0  0  0  0  0  0  0  0
    0.4436   -1.0127   -1.1286 C   0  0  0  0  0  0  0  0  0  0  0  0
    1.2025   -1.3958    1.8468 O   0  0  0  0  0  0  0  0  0  0  0  0
   -0.6170   -0.0646    1.8862 O   0  0  0  0  0  0  0  0  0  0  0  0
   -0.8762    1.7825    0.1480 O   0  0  0  0  0  0  0  0  0  0  0  0
    0.8390    2.0798   -1.2677 O   0  0  0  0  0  0  0  0  0  0  0  0
   -1.0418   -1.3533   -1.2084 C   0  0  0  0  0  0  0  0  0  0  0  0
    1.8931    0.1427   -0.0137 H   0  0  0  0  0  0  0  0  0  0  0  0
    0.7658   -0.6454   -2.1111 H   0  0  0  0  0  0  0  0  0  0  0  0
    0.9983   -1.9405   -0.9425 H   0  0  0  0  0  0  0  0  0  0  0  0
    1.9783   -1.6393    1.3024 H   0  0  0  0  0  0  0  0  0  0  0  0
   -1.2159    1.1843    0.8581 H   0  0  0  0  0  0  0  0  0  0  0  0
   -1.6391   -0.4775   -1.4787 H   0  0  0  0  0  0  0  0  0  0  0  0
   -1.2082   -2.1200   -1.9721 H   0  0  0  0  0  0  0  0  0  0  0  0
   -1.4169   -1.7486   -0.2595 H   0  0  0  0  0  0  0  0  0  0  0  0
  1  2  1  0  0  0  0
  1  3  1  0  0  0  0
  1  4  1  0  0  0  0
  1 10  1  0  0  0  0
  2  5  1  0  0  0  0
  2  6  2  0  0  0  0
  3  7  1  0  0  0  0
  3  8  2  0  0  0  0
  4  9  1  0  0  0  0
  4 11  1  0  0  0  0
  4 12  1  0  0  0  0
  5 13  1  0  0  0  0
  7 14  1  0  0  0  0
  9 15  1  0  0  0  0
  9 16  1  0  0  0  0
  9 17  1  0  0  0  0
M  END
>  <Mol_ID>
7047

>  <Formula>
C5H8O4

>  <MolWeight>
132.11462

>  <Cat>
E4054

>  <Name>
Ethylmalonic acid

>  <Synonyms>
Ethylmalonic acid

>  <Target>
Others

>  <Form>
free base

>  <CAS>
601-75-2

>  <URL>
https://www.selleckchem.com/products/ethylmalonic-acid.html

$$$$
