Ethyl acetoacetate
 OpenBabel08302520383D

 19 18  0  0  0  0  0  0  0  0999 V2000
    0.8642    0.2144    0.1987 C   0  0  0  0  0  0  0  0  0  0  0  0
    0.4257   -1.1417   -0.2604 C   0  0  0  0  0  0  0  0  0  0  0  0
    2.3198    0.5085   -0.0489 C   0  0  0  0  0  0  0  0  0  0  0  0
   -0.3970   -1.7076    0.6654 O   0  0  0  0  0  0  0  0  0  0  0  0
    0.7634   -1.6565   -1.3173 O   0  0  0  0  0  0  0  0  0  0  0  0
    3.3244   -0.5980    0.1435 C   0  0  0  0  0  0  0  0  0  0  0  0
    2.6912    1.6500   -0.3287 O   0  0  0  0  0  0  0  0  0  0  0  0
   -0.8577   -3.0355    0.3715 C   0  0  0  0  0  0  0  0  0  0  0  0
   -2.2070   -2.9715   -0.3162 C   0  0  0  0  0  0  0  0  0  0  0  0
    0.6918    0.3226    1.2756 H   0  0  0  0  0  0  0  0  0  0  0  0
    0.2524    0.9571   -0.3262 H   0  0  0  0  0  0  0  0  0  0  0  0
    3.5398   -1.0676   -0.8190 H   0  0  0  0  0  0  0  0  0  0  0  0
    4.2442   -0.1802    0.5632 H   0  0  0  0  0  0  0  0  0  0  0  0
    2.9476   -1.3449    0.8475 H   0  0  0  0  0  0  0  0  0  0  0  0
   -0.1299   -3.5898   -0.2319 H   0  0  0  0  0  0  0  0  0  0  0  0
   -0.9515   -3.5663    1.3253 H   0  0  0  0  0  0  0  0  0  0  0  0
   -2.1884   -2.2801   -1.1643 H   0  0  0  0  0  0  0  0  0  0  0  0
   -2.5095   -3.9614   -0.6691 H   0  0  0  0  0  0  0  0  0  0  0  0
   -2.9696   -2.6044    0.3791 H   0  0  0  0  0  0  0  0  0  0  0  0
  1  2  1  0  0  0  0
  1  3  1  0  0  0  0
  1 10  1  0  0  0  0
  1 11  1  0  0  0  0
  2  4  1  0  0  0  0
  2  5  2  0  0  0  0
  3  6  1  0  0  0  0
  3  7  2  0  0  0  0
  4  8  1  0  0  0  0
  6 12  1  0  0  0  0
  6 13  1  0  0  0  0
  6 14  1  0  0  0  0
  8  9  1  0  0  0  0
  8 15  1  0  0  0  0
  8 16  1  0  0  0  0
  9 17  1  0  0  0  0
  9 18  1  0  0  0  0
  9 19  1  0  0  0  0
M  END
>  <Mol_ID>
3451

>  <Formula>
C6H10O3

>  <MolWeight>
130.1418

>  <Cat>
S6024

>  <Name>
Ethyl acetoacetate

>  <Synonyms>
N/A

>  <Target>
Others

>  <Form>
Free Base

>  <CAS>
141-97-9

>  <URL>
https://www.selleckchem.com/products/ethyl-acetoacetate.html

$$$$
