Ethyl nonanoate
 OpenBabel08302521363D

 35 34  0  0  0  0  0  0  0  0999 V2000
    1.8590   -0.8993   -3.0336 C   0  0  0  0  0  0  0  0  0  0  0  0
    0.5953   -1.4401   -2.3850 C   0  0  0  0  0  0  0  0  0  0  0  0
    1.6976    0.3549   -3.5362 O   0  0  0  0  0  0  0  0  0  0  0  0
    2.8773   -1.5674   -3.1468 O   0  0  0  0  0  0  0  0  0  0  0  0
   -0.4172   -0.3918   -1.9156 C   0  0  0  0  0  0  0  0  0  0  0  0
    2.7910    0.8715   -4.3196 C   0  0  0  0  0  0  0  0  0  0  0  0
   -1.6653   -1.0336   -1.2871 C   0  0  0  0  0  0  0  0  0  0  0  0
    3.8121    1.5793   -3.4506 C   0  0  0  0  0  0  0  0  0  0  0  0
   -2.6463    0.0312   -0.7741 C   0  0  0  0  0  0  0  0  0  0  0  0
   -3.9266   -0.5313   -0.1406 C   0  0  0  0  0  0  0  0  0  0  0  0
   -3.6681   -1.4050    1.0899 C   0  0  0  0  0  0  0  0  0  0  0  0
   -4.9705   -1.8949    1.7277 C   0  0  0  0  0  0  0  0  0  0  0  0
   -4.6928   -2.7866    2.9296 C   0  0  0  0  0  0  0  0  0  0  0  0
    0.1248   -2.1160   -3.1073 H   0  0  0  0  0  0  0  0  0  0  0  0
    0.9138   -2.0330   -1.5189 H   0  0  0  0  0  0  0  0  0  0  0  0
    0.0634    0.2682   -1.1829 H   0  0  0  0  0  0  0  0  0  0  0  0
   -0.7247    0.2374   -2.7594 H   0  0  0  0  0  0  0  0  0  0  0  0
    3.2578    0.0771   -4.9131 H   0  0  0  0  0  0  0  0  0  0  0  0
    2.3645    1.5869   -5.0320 H   0  0  0  0  0  0  0  0  0  0  0  0
   -2.1699   -1.6671   -2.0266 H   0  0  0  0  0  0  0  0  0  0  0  0
   -1.3510   -1.6828   -0.4631 H   0  0  0  0  0  0  0  0  0  0  0  0
    4.0937    0.9773   -2.5821 H   0  0  0  0  0  0  0  0  0  0  0  0
    4.7147    1.8132   -4.0279 H   0  0  0  0  0  0  0  0  0  0  0  0
    3.4022    2.5231   -3.0703 H   0  0  0  0  0  0  0  0  0  0  0  0
   -2.1382    0.6727   -0.0436 H   0  0  0  0  0  0  0  0  0  0  0  0
   -2.9371    0.6787   -1.6112 H   0  0  0  0  0  0  0  0  0  0  0  0
   -4.5637    0.3151    0.1498 H   0  0  0  0  0  0  0  0  0  0  0  0
   -4.4883   -1.1017   -0.8906 H   0  0  0  0  0  0  0  0  0  0  0  0
   -3.0683   -2.2761    0.8110 H   0  0  0  0  0  0  0  0  0  0  0  0
   -3.0926   -0.8338    1.8281 H   0  0  0  0  0  0  0  0  0  0  0  0
   -5.5780   -1.0398    2.0452 H   0  0  0  0  0  0  0  0  0  0  0  0
   -5.5583   -2.4575    0.9931 H   0  0  0  0  0  0  0  0  0  0  0  0
   -4.0863   -2.2640    3.6762 H   0  0  0  0  0  0  0  0  0  0  0  0
   -5.6312   -3.0889    3.4047 H   0  0  0  0  0  0  0  0  0  0  0  0
   -4.1586   -3.6933    2.6281 H   0  0  0  0  0  0  0  0  0  0  0  0
  1  2  1  0  0  0  0
  1  3  1  0  0  0  0
  1  4  2  0  0  0  0
  2  5  1  0  0  0  0
  2 14  1  0  0  0  0
  2 15  1  0  0  0  0
  3  6  1  0  0  0  0
  5  7  1  0  0  0  0
  5 16  1  0  0  0  0
  5 17  1  0  0  0  0
  6  8  1  0  0  0  0
  6 18  1  0  0  0  0
  6 19  1  0  0  0  0
  7  9  1  0  0  0  0
  7 20  1  0  0  0  0
  7 21  1  0  0  0  0
  8 22  1  0  0  0  0
  8 23  1  0  0  0  0
  8 24  1  0  0  0  0
  9 10  1  0  0  0  0
  9 25  1  0  0  0  0
  9 26  1  0  0  0  0
 10 11  1  0  0  0  0
 10 27  1  0  0  0  0
 10 28  1  0  0  0  0
 11 12  1  0  0  0  0
 11 29  1  0  0  0  0
 11 30  1  0  0  0  0
 12 13  1  0  0  0  0
 12 31  1  0  0  0  0
 12 32  1  0  0  0  0
 13 33  1  0  0  0  0
 13 34  1  0  0  0  0
 13 35  1  0  0  0  0
M  END
>  <Mol_ID>
7052

>  <Formula>
C11H22O2

>  <MolWeight>
186.29118

>  <Cat>
E4064

>  <Name>
Ethyl nonanoate

>  <Synonyms>
Ethyl nonanoate

>  <Target>
Others

>  <Form>
Free base

>  <CAS>
123-29-5

>  <URL>
https://www.selleckchem.com/products/ethyl-nonanoate.html

$$$$
