Etomoxir (Na salt).cdx
 OpenBabel08302520413D

 39 40  0  0  0  0  0  0  0  0999 V2000
   -3.4981    1.0859  -10.8648 C   0  0  0  0  0  0  0  0  0  0  0  0
   -4.2542    0.0123  -10.4014 C   0  0  0  0  0  0  0  0  0  0  0  0
   -3.9161   -0.6188   -9.2007 C   0  0  0  0  0  0  0  0  0  0  0  0
   -2.8438   -0.1524   -8.4341 C   0  0  0  0  0  0  0  0  0  0  0  0
   -2.0533    0.8834   -8.9373 C   0  0  0  0  0  0  0  0  0  0  0  0
   -2.3785    1.5022  -10.1478 C   0  0  0  0  0  0  0  0  0  0  0  0
   -2.4966   -0.6033   -7.1838 O   0  0  0  0  0  0  0  0  0  0  0  0
   -3.3978   -1.5443   -6.5967 C   0  0  0  0  0  0  0  0  0  0  0  0
   -3.0555   -1.7639   -5.1225 C   0  0  0  0  0  0  0  0  0  0  0  0
   -3.9458   -2.8313   -4.4675 C   0  0  0  0  0  0  0  0  0  0  0  0
   -3.9190   -4.2092   -5.1562 C   0  0  0  0  0  0  0  0  0  0  0  0
   -2.5037   -4.7935   -5.2352 C   0  0  0  0  0  0  0  0  0  0  0  0
   -2.3924   -6.2119   -5.8083 C   0  0  0  0  0  0  0  0  0  0  0  0
   -2.7765   -6.3550   -7.2639 C   0  0  1  0  0  0  0  0  0  0  0  0
   -1.9326   -5.6147   -8.1755 O   0  0  0  0  0  0  0  0  0  0  0  0
   -1.8048   -7.0402   -8.2262 C   0  0  0  0  0  0  0  0  0  0  0  0
   -4.2183   -6.3787   -7.6536 C   0  0  0  0  0  0  0  0  0  0  0  0
   -4.4888   -5.6985   -8.7847 O   0  0  0  0  0  0  0  0  0  0  0  0
   -5.0568   -6.9869   -7.0048 O   0  0  0  0  0  0  0  0  0  0  0  0
   -3.7809    1.5951  -11.7823 H   0  0  0  0  0  0  0  0  0  0  0  0
   -5.1189   -0.3277  -10.9662 H   0  0  0  0  0  0  0  0  0  0  0  0
   -4.5239   -1.4603   -8.8858 H   0  0  0  0  0  0  0  0  0  0  0  0
   -1.1895    1.2269   -8.3738 H   0  0  0  0  0  0  0  0  0  0  0  0
   -1.7689    2.3208  -10.5209 H   0  0  0  0  0  0  0  0  0  0  0  0
   -4.4312   -1.1802   -6.6516 H   0  0  0  0  0  0  0  0  0  0  0  0
   -3.2999   -2.4843   -7.1478 H   0  0  0  0  0  0  0  0  0  0  0  0
   -1.9969   -2.0259   -5.0144 H   0  0  0  0  0  0  0  0  0  0  0  0
   -3.1690   -0.8167   -4.5790 H   0  0  0  0  0  0  0  0  0  0  0  0
   -3.6440   -2.9483   -3.4189 H   0  0  0  0  0  0  0  0  0  0  0  0
   -4.9820   -2.4684   -4.4470 H   0  0  0  0  0  0  0  0  0  0  0  0
   -4.5723   -4.8904   -4.5977 H   0  0  0  0  0  0  0  0  0  0  0  0
   -4.3561   -4.1187   -6.1553 H   0  0  0  0  0  0  0  0  0  0  0  0
   -1.8571   -4.1297   -5.8183 H   0  0  0  0  0  0  0  0  0  0  0  0
   -2.0966   -4.8148   -4.2157 H   0  0  0  0  0  0  0  0  0  0  0  0
   -1.3503   -6.5329   -5.6765 H   0  0  0  0  0  0  0  0  0  0  0  0
   -2.9961   -6.8993   -5.2050 H   0  0  0  0  0  0  0  0  0  0  0  0
   -0.8809   -7.4705   -7.8572 H   0  0  0  0  0  0  0  0  0  0  0  0
   -2.2079   -7.5563   -9.0924 H   0  0  0  0  0  0  0  0  0  0  0  0
   -3.6560   -5.3180   -9.1459 H   0  0  0  0  0  0  0  0  0  0  0  0
  1  2  2  0  0  0  0
  1 20  1  0  0  0  0
  2  3  1  0  0  0  0
  2 21  1  0  0  0  0
  3  4  2  0  0  0  0
  3 22  1  0  0  0  0
  4  5  1  0  0  0  0
  4  7  1  0  0  0  0
  5  6  2  0  0  0  0
  5 23  1  0  0  0  0
  6  1  1  0  0  0  0
  6 24  1  0  0  0  0
  7  8  1  0  0  0  0
  8  9  1  0  0  0  0
  8 25  1  0  0  0  0
  8 26  1  0  0  0  0
  9 10  1  0  0  0  0
  9 27  1  0  0  0  0
  9 28  1  0  0  0  0
 10 11  1  0  0  0  0
 10 29  1  0  0  0  0
 10 30  1  0  0  0  0
 11 12  1  0  0  0  0
 11 31  1  0  0  0  0
 11 32  1  0  0  0  0
 12 13  1  0  0  0  0
 12 33  1  0  0  0  0
 12 34  1  0  0  0  0
 13 35  1  0  0  0  0
 13 36  1  0  0  0  0
 14 15  1  0  0  0  0
 14 17  1  6  0  0  0
 14 13  1  0  0  0  0
 15 16  1  0  0  0  0
 16 14  1  0  0  0  0
 16 37  1  0  0  0  0
 16 38  1  0  0  0  0
 17 18  1  0  0  0  0
 17 19  2  0  0  0  0
 18 39  1  0  0  0  0
M  END
>  <Mol_ID>
3970

>  <Formula>
C15H18ClNaO4

>  <MolWeight>
320.74379

>  <Cat>
S8244

>  <Name>
Etomoxir sodium salt

>  <Synonyms>
(R)-(+)-Etomoxir sodium salt

>  <Target>
Apoptosis related,CPT,Transferase

>  <Form>
sodium salt

>  <CAS>
828934-41-4

>  <URL>
http://selleckchem.com/products/etomoxir-na-salt.html

$$$$
