Eudesmin
 OpenBabel08302521463D

 54 57  0  0  1  0  0  0  0  0999 V2000
    1.2226   -0.0596   -1.3963 O   0  0  0  0  0  0  0  0  0  0  0  0
    0.7534   -1.2462   -2.0247 C   0  0  0  0  0  0  0  0  0  0  0  0
    2.4307   -9.3624    3.0374 O   0  0  0  0  0  0  0  0  0  0  0  0
    2.0989   -9.4963    1.6626 C   0  0  0  0  0  0  0  0  0  0  0  0
    2.3357    2.3120   -0.0922 O   0  0  0  0  0  0  0  0  0  0  0  0
    1.1051    2.5196   -0.7670 C   0  0  0  0  0  0  0  0  0  0  0  0
    3.1943   -9.0029    5.8333 O   0  0  0  0  0  0  0  0  0  0  0  0
    2.2836  -10.0643    5.5996 C   0  0  0  0  0  0  0  0  0  0  0  0
    4.6951   -3.4413    1.4403 C   0  0  2  0  0  0  0  0  0  0  0  0
    4.5972   -4.8708    0.9497 C   0  0  2  0  0  0  0  0  0  0  0  0
    5.1485   -2.6295    0.2266 C   0  0  1  0  0  0  0  0  0  0  0  0
    5.7156   -3.4816    2.5558 C   0  0  0  0  0  0  0  0  0  0  0  0
    5.5443   -5.6818    1.8285 C   0  0  1  0  0  0  0  0  0  0  0  0
    5.0710   -4.8113   -0.4924 C   0  0  0  0  0  0  0  0  0  0  0  0
    4.8994   -3.4631   -0.9192 O   0  0  0  0  0  0  0  0  0  0  0  0
    6.4355   -4.7109    2.4090 O   0  0  0  0  0  0  0  0  0  0  0  0
    4.3838   -1.3313    0.0919 C   0  0  0  0  0  0  0  0  0  0  0  0
    3.1739   -1.2807   -0.6193 C   0  0  0  0  0  0  0  0  0  0  0  0
    4.8412   -0.1696    0.7142 C   0  0  0  0  0  0  0  0  0  0  0  0
    2.4150   -0.1087   -0.7263 C   0  0  0  0  0  0  0  0  0  0  0  0
    4.1063    1.0094    0.6054 C   0  0  0  0  0  0  0  0  0  0  0  0
    2.8948    1.0579   -0.1065 C   0  0  0  0  0  0  0  0  0  0  0  0
    4.8567   -6.5373    2.8809 C   0  0  0  0  0  0  0  0  0  0  0  0
    3.9257   -7.5179    2.4851 C   0  0  0  0  0  0  0  0  0  0  0  0
    5.1839   -6.4505    4.2354 C   0  0  0  0  0  0  0  0  0  0  0  0
    3.3209   -8.3905    3.4081 C   0  0  0  0  0  0  0  0  0  0  0  0
    4.5806   -7.2991    5.1633 C   0  0  0  0  0  0  0  0  0  0  0  0
    3.6530   -8.2723    4.7681 C   0  0  0  0  0  0  0  0  0  0  0  0
    1.4284   -1.5579   -2.8286 H   0  0  0  0  0  0  0  0  0  0  0  0
    0.6033   -2.0500   -1.2961 H   0  0  0  0  0  0  0  0  0  0  0  0
   -0.2190   -1.0253   -2.4735 H   0  0  0  0  0  0  0  0  0  0  0  0
    1.5776   -8.6055    1.2976 H   0  0  0  0  0  0  0  0  0  0  0  0
    2.9846   -9.7166    1.0577 H   0  0  0  0  0  0  0  0  0  0  0  0
    1.4158  -10.3457    1.5660 H   0  0  0  0  0  0  0  0  0  0  0  0
    1.1846    2.2893   -1.8342 H   0  0  0  0  0  0  0  0  0  0  0  0
    0.2945    1.9639   -0.2835 H   0  0  0  0  0  0  0  0  0  0  0  0
    0.8609    3.5830   -0.6905 H   0  0  0  0  0  0  0  0  0  0  0  0
    1.3485   -9.7003    5.1626 H   0  0  0  0  0  0  0  0  0  0  0  0
    2.7416  -10.8543    4.9964 H   0  0  0  0  0  0  0  0  0  0  0  0
    2.0301  -10.5008    6.5712 H   0  0  0  0  0  0  0  0  0  0  0  0
    3.7351   -3.0824    1.8305 H   0  0  0  0  0  0  0  0  0  0  0  0
    3.5583   -5.2191    0.9712 H   0  0  0  0  0  0  0  0  0  0  0  0
    6.2260   -2.4234    0.2376 H   0  0  0  0  0  0  0  0  0  0  0  0
    6.4176   -2.6427    2.5546 H   0  0  0  0  0  0  0  0  0  0  0  0
    5.2186   -3.4974    3.5331 H   0  0  0  0  0  0  0  0  0  0  0  0
    6.1622   -6.3695    1.2385 H   0  0  0  0  0  0  0  0  0  0  0  0
    4.4869   -5.4712   -1.1412 H   0  0  0  0  0  0  0  0  0  0  0  0
    6.1295   -5.0701   -0.6097 H   0  0  0  0  0  0  0  0  0  0  0  0
    2.8419   -2.2006   -1.0990 H   0  0  0  0  0  0  0  0  0  0  0  0
    5.7707   -0.1675    1.2771 H   0  0  0  0  0  0  0  0  0  0  0  0
    4.4711    1.9147    1.0879 H   0  0  0  0  0  0  0  0  0  0  0  0
    3.6976   -7.5965    1.4267 H   0  0  0  0  0  0  0  0  0  0  0  0
    5.9227   -5.7337    4.5869 H   0  0  0  0  0  0  0  0  0  0  0  0
    4.8500   -7.2129    6.2142 H   0  0  0  0  0  0  0  0  0  0  0  0
  1  2  1  0  0  0  0
  1 20  1  0  0  0  0
  2 29  1  0  0  0  0
  2 30  1  0  0  0  0
  2 31  1  0  0  0  0
  3  4  1  0  0  0  0
  3 26  1  0  0  0  0
  4 32  1  0  0  0  0
  4 33  1  0  0  0  0
  4 34  1  0  0  0  0
  5  6  1  0  0  0  0
  5 22  1  0  0  0  0
  6 35  1  0  0  0  0
  6 36  1  0  0  0  0
  6 37  1  0  0  0  0
  7  8  1  0  0  0  0
  7 28  1  0  0  0  0
  8 38  1  0  0  0  0
  8 39  1  0  0  0  0
  8 40  1  0  0  0  0
  9 10  1  0  0  0  0
  9 11  1  0  0  0  0
  9 12  1  0  0  0  0
  9 41  1  1  0  0  0
 10 13  1  0  0  0  0
 10 14  1  0  0  0  0
 10 42  1  1  0  0  0
 11 15  1  0  0  0  0
 11 17  1  0  0  0  0
 11 43  1  1  0  0  0
 12 16  1  0  0  0  0
 12 44  1  0  0  0  0
 12 45  1  0  0  0  0
 13 16  1  0  0  0  0
 13 23  1  0  0  0  0
 13 46  1  6  0  0  0
 14 15  1  0  0  0  0
 14 47  1  0  0  0  0
 14 48  1  0  0  0  0
 17 18  2  0  0  0  0
 17 19  1  0  0  0  0
 18 20  1  0  0  0  0
 18 49  1  0  0  0  0
 19 21  2  0  0  0  0
 19 50  1  0  0  0  0
 20 22  2  0  0  0  0
 21 22  1  0  0  0  0
 21 51  1  0  0  0  0
 23 24  2  0  0  0  0
 23 25  1  0  0  0  0
 24 26  1  0  0  0  0
 24 52  1  0  0  0  0
 25 27  2  0  0  0  0
 25 53  1  0  0  0  0
 26 28  2  0  0  0  0
 27 28  1  0  0  0  0
 27 54  1  0  0  0  0
M  END
>  <Mol_ID>
9686

>  <Formula>
C22H26O6

>  <MolWeight>
386.43824

>  <Cat>
E0689

>  <Name>
Eudesmin

>  <Synonyms>
(-)-Eudesmin

>  <Target>
S6K1

>  <Form>
Free Base

>  <CAS>
526-06-7

>  <URL>
https://www.selleckchem.com/products/eudesmin.html

$$$$
