Evolitrine
 OpenBabel08302521453D

 28 30  0  0  0  0  0  0  0  0999 V2000
    1.1068   -0.2109    0.0181 O   0  0  0  0  0  0  0  0  0  0  0  0
    0.1344    0.8120    0.0272 C   0  0  0  0  0  0  0  0  0  0  0  0
    5.6081    4.7139   -0.1380 O   0  0  0  0  0  0  0  0  0  0  0  0
    5.0242    6.0120   -0.0843 C   0  0  0  0  0  0  0  0  0  0  0  0
    3.1627    1.2771   -0.0453 C   0  0  0  0  0  0  0  0  0  0  0  0
    2.4438    0.0355   -0.0325 C   0  0  0  0  0  0  0  0  0  0  0  0
    4.5857    1.2151   -0.1249 C   0  0  0  0  0  0  0  0  0  0  0  0
    2.6002    2.5781    0.0200 C   0  0  0  0  0  0  0  0  0  0  0  0
    3.2137   -1.1448   -0.0744 C   0  0  0  0  0  0  0  0  0  0  0  0
    5.3046    0.0965   -0.1765 N   0  0  0  0  0  0  0  0  0  0  0  0
    5.3279    2.3906   -0.1530 C   0  0  0  0  0  0  0  0  0  0  0  0
    3.3699    3.7435   -0.0096 C   0  0  0  0  0  0  0  0  0  0  0  0
    4.5919   -1.0337   -0.1407 C   0  0  0  0  0  0  0  0  0  0  0  0
    2.9349   -2.5412   -0.0665 C   0  0  0  0  0  0  0  0  0  0  0  0
    4.7453    3.6554   -0.0996 C   0  0  0  0  0  0  0  0  0  0  0  0
    5.1604   -2.2726   -0.1685 O   0  0  0  0  0  0  0  0  0  0  0  0
    4.1509   -3.1792   -0.1207 C   0  0  0  0  0  0  0  0  0  0  0  0
    0.1803    1.3818    0.9600 H   0  0  0  0  0  0  0  0  0  0  0  0
    0.2078    1.4438   -0.8628 H   0  0  0  0  0  0  0  0  0  0  0  0
   -0.8505    0.3372   -0.0054 H   0  0  0  0  0  0  0  0  0  0  0  0
    4.3714    6.1862   -0.9468 H   0  0  0  0  0  0  0  0  0  0  0  0
    4.4810    6.1607    0.8556 H   0  0  0  0  0  0  0  0  0  0  0  0
    5.8303    6.7503   -0.1225 H   0  0  0  0  0  0  0  0  0  0  0  0
    1.5368    2.7461    0.1054 H   0  0  0  0  0  0  0  0  0  0  0  0
    6.4138    2.3200   -0.2167 H   0  0  0  0  0  0  0  0  0  0  0  0
    2.8526    4.6953    0.0426 H   0  0  0  0  0  0  0  0  0  0  0  0
    1.9626   -3.0104   -0.0217 H   0  0  0  0  0  0  0  0  0  0  0  0
    4.4533   -4.2171   -0.1321 H   0  0  0  0  0  0  0  0  0  0  0  0
  1  2  1  0  0  0  0
  1  6  1  0  0  0  0
  2 18  1  0  0  0  0
  2 19  1  0  0  0  0
  2 20  1  0  0  0  0
  3  4  1  0  0  0  0
  3 15  1  0  0  0  0
  4 21  1  0  0  0  0
  4 22  1  0  0  0  0
  4 23  1  0  0  0  0
  5  6  2  0  0  0  0
  5  7  1  0  0  0  0
  5  8  1  0  0  0  0
  6  9  1  0  0  0  0
  7 10  2  0  0  0  0
  7 11  1  0  0  0  0
  8 12  2  0  0  0  0
  8 24  1  0  0  0  0
  9 13  2  0  0  0  0
  9 14  1  0  0  0  0
 10 13  1  0  0  0  0
 11 15  2  0  0  0  0
 11 25  1  0  0  0  0
 12 15  1  0  0  0  0
 12 26  1  0  0  0  0
 13 16  1  0  0  0  0
 14 17  2  0  0  0  0
 14 27  1  0  0  0  0
 16 17  1  0  0  0  0
 17 28  1  0  0  0  0
M  END
>  <Mol_ID>
9608

>  <Formula>
C13H11NO3

>  <MolWeight>
229.23134

>  <Cat>
E2175

>  <Name>
Evolitrine

>  <Synonyms>
7-Methoxydictamnine; Evolitrin

>  <Target>
PDE

>  <Form>
free base

>  <CAS>
523-66-0

>  <URL>
https://www.selleckchem.com/products/evolitrine.html

$$$$
