Ezutromid
 OpenBabel08302521323D

 39 42  0  0  0  0  0  0  0  0999 V2000
    1.0416    0.0939    0.0952 S   0  0  0  0  0  0  0  0  0  0  0  0
    0.5592   -0.0350   -1.6162 C   0  0  0  0  0  0  0  0  0  0  0  0
    0.6396   -1.1167    0.7858 O   0  0  0  0  0  0  0  0  0  0  0  0
    0.6415    1.4001    0.5856 O   0  0  0  0  0  0  0  0  0  0  0  0
   -0.9432   -0.1907   -1.7598 C   0  0  0  0  0  0  0  0  0  0  0  0
    6.9657   -1.5538    0.0780 C   0  0  0  0  0  0  0  0  0  0  0  0
    5.7916   -2.1624    0.0800 N   0  0  0  0  0  0  0  0  0  0  0  0
    6.8934   -0.1813    0.0379 O   0  0  0  0  0  0  0  0  0  0  0  0
    4.8869   -1.1359    0.0587 C   0  0  0  0  0  0  0  0  0  0  0  0
    5.5526    0.0781    0.0252 C   0  0  0  0  0  0  0  0  0  0  0  0
    3.4880   -1.1530    0.0705 C   0  0  0  0  0  0  0  0  0  0  0  0
    4.9296    1.3214   -0.0040 C   0  0  0  0  0  0  0  0  0  0  0  0
    2.8247    0.0847    0.0278 C   0  0  0  0  0  0  0  0  0  0  0  0
    3.5274    1.3017    0.0012 C   0  0  0  0  0  0  0  0  0  0  0  0
    8.2980   -2.1529    0.1337 C   0  0  0  0  0  0  0  0  0  0  0  0
    8.4204   -3.5519    0.1002 C   0  0  0  0  0  0  0  0  0  0  0  0
    9.4622   -1.3844    0.2493 C   0  0  0  0  0  0  0  0  0  0  0  0
    9.6701   -4.1857    0.2071 C   0  0  0  0  0  0  0  0  0  0  0  0
   10.7153   -1.9996    0.3549 C   0  0  0  0  0  0  0  0  0  0  0  0
   10.8337   -3.3982    0.3471 C   0  0  0  0  0  0  0  0  0  0  0  0
    9.7841   -5.5855    0.1915 C   0  0  0  0  0  0  0  0  0  0  0  0
   12.0792   -4.0335    0.4842 C   0  0  0  0  0  0  0  0  0  0  0  0
   11.0285   -6.2016    0.3297 C   0  0  0  0  0  0  0  0  0  0  0  0
   12.1744   -5.4265    0.4806 C   0  0  0  0  0  0  0  0  0  0  0  0
    0.8995    0.8720   -2.1246 H   0  0  0  0  0  0  0  0  0  0  0  0
    1.0681   -0.9026   -2.0476 H   0  0  0  0  0  0  0  0  0  0  0  0
   -1.4804    0.6028   -1.2307 H   0  0  0  0  0  0  0  0  0  0  0  0
   -1.2321   -0.1570   -2.8146 H   0  0  0  0  0  0  0  0  0  0  0  0
   -1.2767   -1.1495   -1.3489 H   0  0  0  0  0  0  0  0  0  0  0  0
    2.9540   -2.0956    0.1278 H   0  0  0  0  0  0  0  0  0  0  0  0
    5.4964    2.2443   -0.0152 H   0  0  0  0  0  0  0  0  0  0  0  0
    2.9880    2.2480    0.0003 H   0  0  0  0  0  0  0  0  0  0  0  0
    7.5197   -4.1583    0.0047 H   0  0  0  0  0  0  0  0  0  0  0  0
    9.4088   -0.2980    0.2746 H   0  0  0  0  0  0  0  0  0  0  0  0
   11.6009   -1.3754    0.4556 H   0  0  0  0  0  0  0  0  0  0  0  0
    8.8990   -6.2080    0.0789 H   0  0  0  0  0  0  0  0  0  0  0  0
   12.9866   -3.4459    0.6041 H   0  0  0  0  0  0  0  0  0  0  0  0
   11.1006   -7.2862    0.3247 H   0  0  0  0  0  0  0  0  0  0  0  0
   13.1431   -5.9055    0.5976 H   0  0  0  0  0  0  0  0  0  0  0  0
  1  2  1  0  0  0  0
  1  3  2  0  0  0  0
  1  4  2  0  0  0  0
  1 13  1  0  0  0  0
  2  5  1  0  0  0  0
  2 25  1  0  0  0  0
  2 26  1  0  0  0  0
  5 27  1  0  0  0  0
  5 28  1  0  0  0  0
  5 29  1  0  0  0  0
  6  7  2  0  0  0  0
  6  8  1  0  0  0  0
  6 15  1  0  0  0  0
  7  9  1  0  0  0  0
  8 10  1  0  0  0  0
  9 10  2  0  0  0  0
  9 11  1  0  0  0  0
 10 12  1  0  0  0  0
 11 13  2  0  0  0  0
 11 30  1  0  0  0  0
 12 14  2  0  0  0  0
 12 31  1  0  0  0  0
 13 14  1  0  0  0  0
 14 32  1  0  0  0  0
 15 16  2  0  0  0  0
 15 17  1  0  0  0  0
 16 18  1  0  0  0  0
 16 33  1  0  0  0  0
 17 19  2  0  0  0  0
 17 34  1  0  0  0  0
 18 20  2  0  0  0  0
 18 21  1  0  0  0  0
 19 20  1  0  0  0  0
 19 35  1  0  0  0  0
 20 22  1  0  0  0  0
 21 23  2  0  0  0  0
 21 36  1  0  0  0  0
 22 24  2  0  0  0  0
 22 37  1  0  0  0  0
 23 24  1  0  0  0  0
 23 38  1  0  0  0  0
 24 39  1  0  0  0  0
M  END
>  <Mol_ID>
6162

>  <Formula>
C19H15NO3S

>  <MolWeight>
337.3923

>  <Cat>
S0418

>  <Name>
Ezutromid

>  <Synonyms>
SMT C1100, BMN 195, VOX-C1100

>  <Target>
P450 (e.g. CYP17)

>  <Form>
free base

>  <CAS>
945531-77-1

>  <URL>
http://www.selleckchem.com/products/ezutromid.html

$$$$
