Fadraciclib (CYC065)
 OpenBabel08302521313D

 60 62  0  0  0  0  0  0  0  0999 V2000
    2.8976    1.0137    1.8276 C   0  0  0  0  0  0  0  0  0  0  0  0
    3.1602   -0.4764    1.6128 C   0  0  2  0  0  0  0  0  0  0  0  0
    2.1838   -1.2253    0.6303 C   0  0  2  0  0  0  0  0  0  0  0  0
    2.2305   -0.6745   -0.8153 C   0  0  0  0  0  0  0  0  0  0  0  0
    3.5815   -0.7819   -1.5176 C   0  0  0  0  0  0  0  0  0  0  0  0
    3.1733   -1.0810    2.9133 O   0  0  0  0  0  0  0  0  0  0  0  0
    0.8226   -1.1662    1.2100 N   0  0  0  0  0  0  0  0  0  0  0  0
   -2.5640   -5.3684    0.5647 N   0  0  0  0  0  0  0  0  0  0  0  0
   -3.2639   -5.1598    1.6683 C   0  0  0  0  0  0  0  0  0  0  0  0
   -2.8404   -4.0274    2.3061 N   0  0  0  0  0  0  0  0  0  0  0  0
   -1.7835   -3.4963    1.6053 C   0  0  0  0  0  0  0  0  0  0  0  0
   -1.0363   -2.4128    1.8617 N   0  0  0  0  0  0  0  0  0  0  0  0
   -0.0651   -2.2039    0.9407 C   0  0  0  0  0  0  0  0  0  0  0  0
    0.1070   -2.9305   -0.1836 N   0  0  0  0  0  0  0  0  0  0  0  0
   -0.6566   -4.0215   -0.4199 C   0  0  0  0  0  0  0  0  0  0  0  0
   -1.6515   -4.3446    0.5159 C   0  0  0  0  0  0  0  0  0  0  0  0
   -3.4987   -3.5219    3.5028 C   0  0  0  0  0  0  0  0  0  0  0  0
   -2.5546   -3.4624    4.6953 C   0  0  0  0  0  0  0  0  0  0  0  0
   -4.2215   -2.2075    3.2308 C   0  0  0  0  0  0  0  0  0  0  0  0
   -0.4040   -4.7205   -1.5810 N   0  0  0  0  0  0  0  0  0  0  0  0
   -0.6168   -6.1480   -1.6715 C   0  0  0  0  0  0  0  0  0  0  0  0
   -2.9674   -6.4311   -2.4095 C   0  0  0  0  0  0  0  0  0  0  0  0
   -1.6130   -6.4096   -2.7611 C   0  0  0  0  0  0  0  0  0  0  0  0
   -1.2900   -6.5899   -4.1081 C   0  0  0  0  0  0  0  0  0  0  0  0
   -2.3393   -6.8032   -5.0132 C   0  0  0  0  0  0  0  0  0  0  0  0
   -3.6578   -6.8221   -4.5605 C   0  0  0  0  0  0  0  0  0  0  0  0
   -3.9865   -6.6407   -3.2687 N   0  0  0  0  0  0  0  0  0  0  0  0
   -4.7928   -7.0467   -5.5091 C   0  0  0  0  0  0  0  0  0  0  0  0
    0.1153   -6.5814   -4.6368 C   0  0  0  0  0  0  0  0  0  0  0  0
    3.7286    1.4564    2.3870 H   0  0  0  0  0  0  0  0  0  0  0  0
    2.7909    1.5614    0.8895 H   0  0  0  0  0  0  0  0  0  0  0  0
    2.0080    1.1790    2.4476 H   0  0  0  0  0  0  0  0  0  0  0  0
    4.1787   -0.5919    1.2292 H   0  0  0  0  0  0  0  0  0  0  0  0
    2.5181   -2.2731    0.6127 H   0  0  0  0  0  0  0  0  0  0  0  0
    1.5079   -1.1944   -1.4509 H   0  0  0  0  0  0  0  0  0  0  0  0
    1.9244    0.3753   -0.8048 H   0  0  0  0  0  0  0  0  0  0  0  0
    3.8371   -1.8257   -1.7287 H   0  0  0  0  0  0  0  0  0  0  0  0
    3.5384   -0.2580   -2.4805 H   0  0  0  0  0  0  0  0  0  0  0  0
    4.3903   -0.3292   -0.9383 H   0  0  0  0  0  0  0  0  0  0  0  0
    2.2407   -1.2875    3.1331 H   0  0  0  0  0  0  0  0  0  0  0  0
    0.3259   -0.2872    1.0822 H   0  0  0  0  0  0  0  0  0  0  0  0
   -4.0644   -5.7865    2.0209 H   0  0  0  0  0  0  0  0  0  0  0  0
   -4.2743   -4.2588    3.7548 H   0  0  0  0  0  0  0  0  0  0  0  0
   -1.7382   -2.7533    4.5347 H   0  0  0  0  0  0  0  0  0  0  0  0
   -3.0962   -3.1651    5.5988 H   0  0  0  0  0  0  0  0  0  0  0  0
   -2.1112   -4.4481    4.8800 H   0  0  0  0  0  0  0  0  0  0  0  0
   -4.9406   -2.3284    2.4108 H   0  0  0  0  0  0  0  0  0  0  0  0
   -4.7789   -1.8832    4.1149 H   0  0  0  0  0  0  0  0  0  0  0  0
   -3.5275   -1.4112    2.9475 H   0  0  0  0  0  0  0  0  0  0  0  0
    0.3019   -4.2991   -2.1681 H   0  0  0  0  0  0  0  0  0  0  0  0
    0.3420   -6.6466   -1.8486 H   0  0  0  0  0  0  0  0  0  0  0  0
   -0.9846   -6.6278   -0.7586 H   0  0  0  0  0  0  0  0  0  0  0  0
   -3.2809   -6.2825   -1.3852 H   0  0  0  0  0  0  0  0  0  0  0  0
   -2.1260   -6.9566   -6.0635 H   0  0  0  0  0  0  0  0  0  0  0  0
   -5.3544   -7.9375   -5.2113 H   0  0  0  0  0  0  0  0  0  0  0  0
   -5.4636   -6.1821   -5.5007 H   0  0  0  0  0  0  0  0  0  0  0  0
   -4.4358   -7.1934   -6.5330 H   0  0  0  0  0  0  0  0  0  0  0  0
    0.3518   -7.5614   -5.0642 H   0  0  0  0  0  0  0  0  0  0  0  0
    0.2166   -5.8142   -5.4109 H   0  0  0  0  0  0  0  0  0  0  0  0
    0.8693   -6.3667   -3.8766 H   0  0  0  0  0  0  0  0  0  0  0  0
  1 30  1  0  0  0  0
  1 31  1  0  0  0  0
  1 32  1  0  0  0  0
  2  6  1  0  0  0  0
  2 33  1  6  0  0  0
  2  3  1  0  0  0  0
  2  1  1  0  0  0  0
  3 34  1  6  0  0  0
  3  7  1  0  0  0  0
  3  4  1  0  0  0  0
  4  5  1  0  0  0  0
  4 35  1  0  0  0  0
  4 36  1  0  0  0  0
  5 37  1  0  0  0  0
  5 38  1  0  0  0  0
  5 39  1  0  0  0  0
  6 40  1  0  0  0  0
  7 13  1  0  0  0  0
  7 41  1  0  0  0  0
  8  9  2  0  0  0  0
  8 16  1  0  0  0  0
  9 10  1  0  0  0  0
  9 42  1  0  0  0  0
 10 11  1  0  0  0  0
 10 17  1  0  0  0  0
 11 12  1  0  0  0  0
 11 16  2  0  0  0  0
 12 13  2  0  0  0  0
 13 14  1  0  0  0  0
 14 15  2  0  0  0  0
 15 16  1  0  0  0  0
 15 20  1  0  0  0  0
 17 18  1  0  0  0  0
 17 19  1  0  0  0  0
 17 43  1  0  0  0  0
 18 44  1  0  0  0  0
 18 45  1  0  0  0  0
 18 46  1  0  0  0  0
 19 47  1  0  0  0  0
 19 48  1  0  0  0  0
 19 49  1  0  0  0  0
 20 21  1  0  0  0  0
 20 50  1  0  0  0  0
 21 23  1  0  0  0  0
 21 51  1  0  0  0  0
 21 52  1  0  0  0  0
 22 23  2  0  0  0  0
 22 27  1  0  0  0  0
 22 53  1  0  0  0  0
 23 24  1  0  0  0  0
 24 25  2  0  0  0  0
 24 29  1  0  0  0  0
 25 26  1  0  0  0  0
 25 54  1  0  0  0  0
 26 27  2  0  0  0  0
 26 28  1  0  0  0  0
 28 55  1  0  0  0  0
 28 56  1  0  0  0  0
 28 57  1  0  0  0  0
 29 58  1  0  0  0  0
 29 59  1  0  0  0  0
 29 60  1  0  0  0  0
M  END
>  <Mol_ID>
6025

>  <Formula>
C21H31N7O

>  <MolWeight>
397.51714

>  <Cat>
S7371

>  <Name>
Fadraciclib (CYC065)

>  <Synonyms>
N/A

>  <Target>
CDK

>  <Form>
Free Base

>  <CAS>
1070790-89-4

>  <URL>
http://www.selleckchem.com/products/fadraciclib.html

$$$$
