Falcarindiol
 OpenBabel08302521253D

 43 42  0  0  0  0  0  0  0  0999 V2000
  -19.4495  -12.9890   -1.7680 C   0  0  0  0  0  0  0  0  0  0  0  0
  -17.9853  -12.5862   -1.6818 C   0  0  0  0  0  0  0  0  0  0  0  0
  -17.5793  -11.7046   -2.8630 C   0  0  0  0  0  0  0  0  0  0  0  0
  -16.1098  -11.2915   -2.7800 C   0  0  0  0  0  0  0  0  0  0  0  0
  -15.7135  -10.4112   -3.9680 C   0  0  0  0  0  0  0  0  0  0  0  0
  -14.2496   -9.9933   -3.8707 C   0  0  0  0  0  0  0  0  0  0  0  0
  -13.8293   -9.1094   -5.0443 C   0  0  0  0  0  0  0  0  0  0  0  0
  -12.3747   -8.7759   -4.9017 C   0  0  0  0  0  0  0  0  0  0  0  0
  -11.3618   -9.4762   -5.4368 C   0  0  0  0  0  0  0  0  0  0  0  0
  -11.4559  -10.6644   -6.3468 C   0  0  1  0  0  0  0  0  0  0  0  0
  -10.7306  -10.3196   -7.5658 C   0  0  0  0  0  0  0  0  0  0  0  0
  -10.8328  -11.7538   -5.6825 O   0  0  0  0  0  0  0  0  0  0  0  0
  -10.0751   -9.8915   -8.4756 C   0  0  0  0  0  0  0  0  0  0  0  0
   -9.1878   -9.2195   -9.5158 C   0  0  0  0  0  0  0  0  0  0  0  0
   -8.4614   -8.6378  -10.2750 C   0  0  0  0  0  0  0  0  0  0  0  0
   -7.5617   -7.9351  -11.1876 C   0  0  1  0  0  0  0  0  0  0  0  0
   -7.8183   -6.4562  -11.1500 C   0  0  0  0  0  0  0  0  0  0  0  0
   -8.2118   -5.7368  -12.2100 C   0  0  0  0  0  0  0  0  0  0  0  0
   -6.2138   -8.1559  -10.7934 O   0  0  0  0  0  0  0  0  0  0  0  0
  -20.1003  -12.1088   -1.7497 H   0  0  0  0  0  0  0  0  0  0  0  0
  -19.7187  -13.6274   -0.9208 H   0  0  0  0  0  0  0  0  0  0  0  0
  -19.6501  -13.5452   -2.6893 H   0  0  0  0  0  0  0  0  0  0  0  0
  -17.8143  -12.0520   -0.7400 H   0  0  0  0  0  0  0  0  0  0  0  0
  -17.3649  -13.4896   -1.6598 H   0  0  0  0  0  0  0  0  0  0  0  0
  -17.7543  -12.2458   -3.8007 H   0  0  0  0  0  0  0  0  0  0  0  0
  -18.2097  -10.8075   -2.8846 H   0  0  0  0  0  0  0  0  0  0  0  0
  -15.9315  -10.7477   -1.8444 H   0  0  0  0  0  0  0  0  0  0  0  0
  -15.4755  -12.1865   -2.7581 H   0  0  0  0  0  0  0  0  0  0  0  0
  -15.8769  -10.9595   -4.9035 H   0  0  0  0  0  0  0  0  0  0  0  0
  -16.3483   -9.5180   -3.9975 H   0  0  0  0  0  0  0  0  0  0  0  0
  -14.0789   -9.4572   -2.9288 H   0  0  0  0  0  0  0  0  0  0  0  0
  -13.6205  -10.8932   -3.8424 H   0  0  0  0  0  0  0  0  0  0  0  0
  -14.0358   -9.6099   -5.9962 H   0  0  0  0  0  0  0  0  0  0  0  0
  -14.4094   -8.1799   -5.0610 H   0  0  0  0  0  0  0  0  0  0  0  0
  -12.1344   -7.9247   -4.2681 H   0  0  0  0  0  0  0  0  0  0  0  0
  -10.3477   -9.1555   -5.2004 H   0  0  0  0  0  0  0  0  0  0  0  0
  -12.4830  -10.9529   -6.5826 H   0  0  0  0  0  0  0  0  0  0  0  0
  -10.2779  -12.2100   -6.3343 H   0  0  0  0  0  0  0  0  0  0  0  0
   -7.6800   -8.3309  -12.1977 H   0  0  0  0  0  0  0  0  0  0  0  0
   -7.6607   -5.9438  -10.2036 H   0  0  0  0  0  0  0  0  0  0  0  0
   -8.3699   -4.6642  -12.1295 H   0  0  0  0  0  0  0  0  0  0  0  0
   -8.3788   -6.1953  -13.1794 H   0  0  0  0  0  0  0  0  0  0  0  0
   -6.1336   -7.8570   -9.8727 H   0  0  0  0  0  0  0  0  0  0  0  0
  1  2  1  0  0  0  0
  1 20  1  0  0  0  0
  1 21  1  0  0  0  0
  1 22  1  0  0  0  0
  2  3  1  0  0  0  0
  2 23  1  0  0  0  0
  2 24  1  0  0  0  0
  3  4  1  0  0  0  0
  3 25  1  0  0  0  0
  3 26  1  0  0  0  0
  4  5  1  0  0  0  0
  4 27  1  0  0  0  0
  4 28  1  0  0  0  0
  5  6  1  0  0  0  0
  5 29  1  0  0  0  0
  5 30  1  0  0  0  0
  6  7  1  0  0  0  0
  6 31  1  0  0  0  0
  6 32  1  0  0  0  0
  7  8  1  0  0  0  0
  7 33  1  0  0  0  0
  7 34  1  0  0  0  0
  8  9  2  0  0  0  0
  8 35  1  0  0  0  0
  9 10  1  0  0  0  0
  9 36  1  0  0  0  0
 10 11  1  0  0  0  0
 10 12  1  0  0  0  0
 10 37  1  6  0  0  0
 11 13  3  0  0  0  0
 12 38  1  0  0  0  0
 13 14  1  0  0  0  0
 14 15  3  0  0  0  0
 16 19  1  0  0  0  0
 16 39  1  6  0  0  0
 16 17  1  0  0  0  0
 16 15  1  0  0  0  0
 17 18  2  0  0  0  0
 17 40  1  0  0  0  0
 18 41  1  0  0  0  0
 18 42  1  0  0  0  0
 19 43  1  0  0  0  0
M  END
>  <Mol_ID>
5163

>  <Formula>
C17H24O2

>  <MolWeight>
260.37126

>  <Cat>
S3292

>  <Name>
Falcarindiol

>  <Synonyms>
FAD, (3R,8S)-Falcarindiol, FaDOH

>  <Target>
ERK,Interleukins,JNK,NOS,STAT,TNF-alpha

>  <Form>
free base

>  <CAS>
225110-25-8

>  <URL>
http://www.selleckchem.com/products/falcarindiol.html

$$$$
