Fasnall
 OpenBabel08302521353D

 46 49  0  0  0  0  0  0  0  0999 V2000
   -2.3944   -1.9455   -3.0483 C   0  0  0  0  0  0  0  0  0  0  0  0
   -3.1272   -0.8366   -2.9891 N   0  0  0  0  0  0  0  0  0  0  0  0
   -3.0875   -0.2610   -1.7785 C   0  0  0  0  0  0  0  0  0  0  0  0
   -2.3894   -0.7100   -0.6603 C   0  0  0  0  0  0  0  0  0  0  0  0
   -1.5929   -1.8719   -0.8643 C   0  0  0  0  0  0  0  0  0  0  0  0
   -1.6471   -2.4793   -2.0739 N   0  0  0  0  0  0  0  0  0  0  0  0
   -2.6607    0.1629    0.4824 C   0  0  0  0  0  0  0  0  0  0  0  0
   -3.4142    1.2726    0.1128 C   0  0  0  0  0  0  0  0  0  0  0  0
   -3.9206    1.1928   -1.5131 S   0  0  0  0  0  0  0  0  0  0  0  0
   -0.7232   -2.3708    0.0879 N   0  0  0  0  0  0  0  0  0  0  0  0
    2.2133   -4.3822    0.7017 N   0  0  0  0  0  0  0  0  0  0  0  0
    0.8978   -3.9166    1.1393 C   0  0  0  0  0  0  0  0  0  0  0  0
    0.0341   -3.6082   -0.0995 C   0  0  3  0  0  0  0  0  0  0  0  0
    1.0376   -3.5188   -1.2403 C   0  0  0  0  0  0  0  0  0  0  0  0
    2.3648   -4.0272   -0.7104 C   0  0  0  0  0  0  0  0  0  0  0  0
    2.4934   -5.7899    1.0109 C   0  0  0  0  0  0  0  0  0  0  0  0
    3.8800   -6.2035    0.5475 C   0  0  0  0  0  0  0  0  0  0  0  0
    5.0212   -5.5734    1.0671 C   0  0  0  0  0  0  0  0  0  0  0  0
    6.2709   -5.7822    0.4819 C   0  0  0  0  0  0  0  0  0  0  0  0
    6.3945   -6.6338   -0.6147 C   0  0  0  0  0  0  0  0  0  0  0  0
    5.2785   -7.3138   -1.0986 C   0  0  0  0  0  0  0  0  0  0  0  0
    4.0287   -7.1109   -0.5126 C   0  0  0  0  0  0  0  0  0  0  0  0
   -3.8107    2.4507    0.9451 C   0  0  0  0  0  0  0  0  0  0  0  0
   -2.1983   -0.0839    1.8836 C   0  0  0  0  0  0  0  0  0  0  0  0
   -2.3968   -2.4746   -3.9952 H   0  0  0  0  0  0  0  0  0  0  0  0
   -0.8158   -2.0159    1.0248 H   0  0  0  0  0  0  0  0  0  0  0  0
    1.0548   -3.0087    1.7347 H   0  0  0  0  0  0  0  0  0  0  0  0
    0.3850   -4.6279    1.7983 H   0  0  0  0  0  0  0  0  0  0  0  0
   -0.6515   -4.4470   -0.2730 H   0  0  0  0  0  0  0  0  0  0  0  0
    0.7068   -4.1523   -2.0736 H   0  0  0  0  0  0  0  0  0  0  0  0
    1.1568   -2.5023   -1.6320 H   0  0  0  0  0  0  0  0  0  0  0  0
    2.7112   -4.8466   -1.3479 H   0  0  0  0  0  0  0  0  0  0  0  0
    3.1215   -3.2374   -0.7885 H   0  0  0  0  0  0  0  0  0  0  0  0
    2.4475   -5.9460    2.0972 H   0  0  0  0  0  0  0  0  0  0  0  0
    1.7335   -6.4454    0.5665 H   0  0  0  0  0  0  0  0  0  0  0  0
    4.9253   -4.8679    1.8897 H   0  0  0  0  0  0  0  0  0  0  0  0
    7.1407   -5.2502    0.8579 H   0  0  0  0  0  0  0  0  0  0  0  0
    7.3584   -6.7569   -1.1010 H   0  0  0  0  0  0  0  0  0  0  0  0
    5.3740   -7.9748   -1.9557 H   0  0  0  0  0  0  0  0  0  0  0  0
    3.1600   -7.6149   -0.9294 H   0  0  0  0  0  0  0  0  0  0  0  0
   -4.4308    2.1313    1.7887 H   0  0  0  0  0  0  0  0  0  0  0  0
   -2.9165    2.9444    1.3419 H   0  0  0  0  0  0  0  0  0  0  0  0
   -4.3745    3.1986    0.3778 H   0  0  0  0  0  0  0  0  0  0  0  0
   -2.5715   -1.0529    2.2322 H   0  0  0  0  0  0  0  0  0  0  0  0
   -1.1066   -0.0726    1.9429 H   0  0  0  0  0  0  0  0  0  0  0  0
   -2.5746    0.6730    2.5797 H   0  0  0  0  0  0  0  0  0  0  0  0
  1  2  2  0  0  0  0
  1  6  1  0  0  0  0
  1 25  1  0  0  0  0
  2  3  1  0  0  0  0
  3  4  2  0  0  0  0
  4  5  1  0  0  0  0
  5  6  2  0  0  0  0
  5 10  1  0  0  0  0
  7  8  2  0  0  0  0
  7  4  1  0  0  0  0
  7 24  1  0  0  0  0
  8  9  1  0  0  0  0
  8 23  1  0  0  0  0
  9  3  1  0  0  0  0
 10 13  1  0  0  0  0
 10 26  1  0  0  0  0
 11 12  1  0  0  0  0
 11 15  1  0  0  0  0
 11 16  1  0  0  0  0
 12 13  1  0  0  0  0
 12 27  1  0  0  0  0
 12 28  1  0  0  0  0
 13 14  1  0  0  0  0
 13 29  1  0  0  0  0
 14 15  1  0  0  0  0
 14 30  1  0  0  0  0
 14 31  1  0  0  0  0
 15 32  1  0  0  0  0
 15 33  1  0  0  0  0
 16 17  1  0  0  0  0
 16 34  1  0  0  0  0
 16 35  1  0  0  0  0
 17 18  2  0  0  0  0
 17 22  1  0  0  0  0
 18 19  1  0  0  0  0
 18 36  1  0  0  0  0
 19 20  2  0  0  0  0
 19 37  1  0  0  0  0
 20 21  1  0  0  0  0
 20 38  1  0  0  0  0
 21 22  2  0  0  0  0
 21 39  1  0  0  0  0
 22 40  1  0  0  0  0
 23 41  1  0  0  0  0
 23 42  1  0  0  0  0
 23 43  1  0  0  0  0
 24 44  1  0  0  0  0
 24 45  1  0  0  0  0
 24 46  1  0  0  0  0
M  END
>  <Mol_ID>
6689

>  <Formula>
C19H22N4S

>  <MolWeight>
338.46978

>  <Cat>
S6248

>  <Name>
Fasnall

>  <Synonyms>
N/A

>  <Target>
Fatty Acid Synthase

>  <Form>
Free base

>  <CAS>
929978-58-5

>  <URL>
http://www.selleckchem.com/products/fasnall.html

$$$$
