FBPase-1 inhibitor-1
 OpenBabel08302521343D

 29 31  0  0  0  0  0  0  0  0999 V2000
    1.0364    0.1003    0.0003 N   0  0  0  0  0  0  0  0  0  0  0  0
    0.0538   -0.3543    1.2950 S   0  0  0  0  0  0  0  0  0  0  0  0
   -1.3348   -0.4600    0.9030 O   0  0  0  0  0  0  0  0  0  0  0  0
    0.7323   -1.4856    1.8946 O   0  0  0  0  0  0  0  0  0  0  0  0
   -0.8245    1.2448   -2.6961 C   0  0  0  0  0  0  0  0  0  0  0  0
   -0.6394   -0.0758   -3.0729 C   0  0  0  0  0  0  0  0  0  0  0  0
   -0.2442    1.4646   -1.4719 N   0  0  0  0  0  0  0  0  0  0  0  0
   -1.5171    2.1037   -3.5591 C   0  0  0  0  0  0  0  0  0  0  0  0
    0.1061   -0.6818   -2.1043 O   0  0  0  0  0  0  0  0  0  0  0  0
   -1.1301   -0.6429   -4.2429 C   0  0  0  0  0  0  0  0  0  0  0  0
    0.2686    0.2936   -1.1612 C   0  0  0  0  0  0  0  0  0  0  0  0
   -2.0167    1.5742   -4.7596 C   0  0  0  0  0  0  0  0  0  0  0  0
   -1.8349    0.2243   -5.0873 C   0  0  0  0  0  0  0  0  0  0  0  0
    0.2096    1.0168    2.4118 C   0  0  0  0  0  0  0  0  0  0  0  0
   -0.6695    2.0968    2.2863 C   0  0  0  0  0  0  0  0  0  0  0  0
    1.1161    0.9556    3.4747 C   0  0  0  0  0  0  0  0  0  0  0  0
   -0.6380    3.1229    3.2313 C   0  0  0  0  0  0  0  0  0  0  0  0
    1.1441    1.9881    4.4137 C   0  0  0  0  0  0  0  0  0  0  0  0
    0.2649    3.0662    4.2945 C   0  0  0  0  0  0  0  0  0  0  0  0
    1.6873   -0.6733   -0.1232 H   0  0  0  0  0  0  0  0  0  0  0  0
   -1.6585    3.1478   -3.3030 H   0  0  0  0  0  0  0  0  0  0  0  0
   -0.9773   -1.6877   -4.4818 H   0  0  0  0  0  0  0  0  0  0  0  0
   -2.5577    2.2245   -5.4449 H   0  0  0  0  0  0  0  0  0  0  0  0
   -2.2474   -0.1587   -6.0198 H   0  0  0  0  0  0  0  0  0  0  0  0
   -1.3884    2.1359    1.4702 H   0  0  0  0  0  0  0  0  0  0  0  0
    1.7860    0.1071    3.5914 H   0  0  0  0  0  0  0  0  0  0  0  0
   -1.3281    3.9592    3.1481 H   0  0  0  0  0  0  0  0  0  0  0  0
    1.8389    1.9455    5.2493 H   0  0  0  0  0  0  0  0  0  0  0  0
    0.2762    3.8599    5.0381 H   0  0  0  0  0  0  0  0  0  0  0  0
  1  2  1  0  0  0  0
  1 11  1  0  0  0  0
  1 20  1  0  0  0  0
  2  3  2  0  0  0  0
  2  4  2  0  0  0  0
  2 14  1  0  0  0  0
  5  6  2  0  0  0  0
  5  7  1  0  0  0  0
  5  8  1  0  0  0  0
  6  9  1  0  0  0  0
  6 10  1  0  0  0  0
  7 11  2  0  0  0  0
  8 12  2  0  0  0  0
  8 21  1  0  0  0  0
  9 11  1  0  0  0  0
 10 13  2  0  0  0  0
 10 22  1  0  0  0  0
 12 13  1  0  0  0  0
 12 23  1  0  0  0  0
 13 24  1  0  0  0  0
 14 15  2  0  0  0  0
 14 16  1  0  0  0  0
 15 17  1  0  0  0  0
 15 25  1  0  0  0  0
 16 18  2  0  0  0  0
 16 26  1  0  0  0  0
 17 19  2  0  0  0  0
 17 27  1  0  0  0  0
 18 19  1  0  0  0  0
 18 28  1  0  0  0  0
 19 29  1  0  0  0  0
M  END
>  <Mol_ID>
6513

>  <Formula>
C13H7Cl3N2O3S

>  <MolWeight>
377.63028

>  <Cat>
E2846

>  <Name>
FBPase-1 inhibitor-1

>  <Target>
Carbohydrate Metabolism

>  <Form>
free base

>  <CAS>
883973-99-7

>  <URL>
http://www.selleckchem.com/products/fbpase-1-inhibitor-1.html

$$$$
