FELDENE (piroxicam).cdx
 OpenBabel08302520433D

 36 38  0  0  0  0  0  0  0  0999 V2000
   -1.6297    2.1503   -1.7419 C   0  0  0  0  0  0  0  0  0  0  0  0
   -1.4262    1.4588   -0.5659 C   0  0  0  0  0  0  0  0  0  0  0  0
   -1.8593    0.1996   -0.3567 N   0  0  0  0  0  0  0  0  0  0  0  0
   -2.5424   -0.4205   -1.3362 C   0  0  0  0  0  0  0  0  0  0  0  0
   -2.7912    0.1999   -2.5544 C   0  0  0  0  0  0  0  0  0  0  0  0
   -2.3224    1.5032   -2.7592 C   0  0  0  0  0  0  0  0  0  0  0  0
   -3.0354   -1.7162   -1.1095 N   0  0  0  0  0  0  0  0  0  0  0  0
   -2.8035   -2.4414    0.0446 C   0  0  0  0  0  0  0  0  0  0  0  0
   -3.4059   -3.8175    0.0462 C   0  0  0  0  0  0  0  0  0  0  0  0
   -2.1880   -2.0885    1.0561 O   0  0  0  0  0  0  0  0  0  0  0  0
   -4.5648   -4.0241   -0.7972 N   0  0  0  0  0  0  0  0  0  0  0  0
   -4.5838   -5.5763   -1.5088 S   0  0  0  0  0  0  0  0  0  0  0  0
   -4.4484   -6.6031   -0.0927 C   0  0  0  0  0  0  0  0  0  0  0  0
   -3.6434   -6.1378    0.9516 C   0  0  0  0  0  0  0  0  0  0  0  0
   -3.0007   -4.7989    0.8820 C   0  0  0  0  0  0  0  0  0  0  0  0
   -5.1507   -7.8111   -0.0324 C   0  0  0  0  0  0  0  0  0  0  0  0
   -5.0060   -8.6166    1.0907 C   0  0  0  0  0  0  0  0  0  0  0  0
   -4.1723   -8.2068    2.1322 C   0  0  0  0  0  0  0  0  0  0  0  0
   -3.5014   -6.9786    2.0651 C   0  0  0  0  0  0  0  0  0  0  0  0
   -1.9681   -4.6472    1.8014 O   0  0  0  0  0  0  0  0  0  0  0  0
   -5.8564   -3.5841   -0.2098 C   0  0  0  0  0  0  0  0  0  0  0  0
   -5.8871   -5.7758   -2.1006 O   0  0  0  0  0  0  0  0  0  0  0  0
   -3.3690   -5.7336   -2.2773 O   0  0  0  0  0  0  0  0  0  0  0  0
   -1.2584    3.1618   -1.8590 H   0  0  0  0  0  0  0  0  0  0  0  0
   -0.9004    1.9044    0.2731 H   0  0  0  0  0  0  0  0  0  0  0  0
   -3.3346   -0.2968   -3.3507 H   0  0  0  0  0  0  0  0  0  0  0  0
   -2.4939    2.0125   -3.7037 H   0  0  0  0  0  0  0  0  0  0  0  0
   -3.5964   -2.1466   -1.8396 H   0  0  0  0  0  0  0  0  0  0  0  0
   -5.7963   -8.1223   -0.8506 H   0  0  0  0  0  0  0  0  0  0  0  0
   -5.5320   -9.5658    1.1538 H   0  0  0  0  0  0  0  0  0  0  0  0
   -4.0457   -8.8439    3.0050 H   0  0  0  0  0  0  0  0  0  0  0  0
   -2.8717   -6.6820    2.9026 H   0  0  0  0  0  0  0  0  0  0  0  0
   -1.7535   -3.6927    1.8889 H   0  0  0  0  0  0  0  0  0  0  0  0
   -6.6117   -3.5213   -0.9996 H   0  0  0  0  0  0  0  0  0  0  0  0
   -6.2043   -4.2609    0.5769 H   0  0  0  0  0  0  0  0  0  0  0  0
   -5.7639   -2.5800    0.2185 H   0  0  0  0  0  0  0  0  0  0  0  0
  1  2  2  0  0  0  0
  1 24  1  0  0  0  0
  2  3  1  0  0  0  0
  2 25  1  0  0  0  0
  3  4  2  0  0  0  0
  4  5  1  0  0  0  0
  4  7  1  0  0  0  0
  5  6  2  0  0  0  0
  5 26  1  0  0  0  0
  6  1  1  0  0  0  0
  6 27  1  0  0  0  0
  7  8  1  0  0  0  0
  7 28  1  0  0  0  0
  8  9  1  0  0  0  0
  8 10  2  0  0  0  0
  9 11  1  0  0  0  0
 11 12  1  0  0  0  0
 11 21  1  0  0  0  0
 12 13  1  0  0  0  0
 12 22  2  0  0  0  0
 12 23  2  0  0  0  0
 13 14  2  0  0  0  0
 13 16  1  0  0  0  0
 14 15  1  0  0  0  0
 15  9  2  0  0  0  0
 15 20  1  0  0  0  0
 16 17  2  0  0  0  0
 16 29  1  0  0  0  0
 17 18  1  0  0  0  0
 17 30  1  0  0  0  0
 18 19  2  0  0  0  0
 18 31  1  0  0  0  0
 19 14  1  0  0  0  0
 19 32  1  0  0  0  0
 20 33  1  0  0  0  0
 21 34  1  0  0  0  0
 21 35  1  0  0  0  0
 21 36  1  0  0  0  0
M  END
>  <Mol_ID>
407

>  <Formula>
C15H13N3O4S

>  <MolWeight>
331.34642

>  <Cat>
S1713

>  <Name>
Piroxicam

>  <Synonyms>
CP 16171

>  <Target>
COX

>  <Form>
free base

>  <CAS>
36322-90-4

>  <URL>
http://selleckchem.com/products/Piroxicam(Feldene).html

$$$$
