Fenbendazole.cdx
 OpenBabel08302521383D

 34 36  0  0  0  0  0  0  0  0999 V2000
    1.1222    0.1815   -1.8671 C   0  0  0  0  0  0  0  0  0  0  0  0
    0.1466   -0.7039   -2.2909 C   0  0  0  0  0  0  0  0  0  0  0  0
   -1.1383   -0.6457   -1.7637 C   0  0  0  0  0  0  0  0  0  0  0  0
   -1.4822    0.2908   -0.8077 C   0  0  0  0  0  0  0  0  0  0  0  0
   -0.4631    1.1299   -0.3445 C   0  0  0  0  0  0  0  0  0  0  0  0
    0.7936    1.1701   -0.9573 C   0  0  0  0  0  0  0  0  0  0  0  0
   -3.1513    0.5093   -0.2241 S   0  0  0  0  0  0  0  0  0  0  0  0
   -3.9867   -1.1088   -0.3420 C   0  0  0  0  0  0  0  0  0  0  0  0
   -4.0070   -2.1084    0.7288 C   0  0  0  0  0  0  0  0  0  0  0  0
   -4.8241   -3.3860    0.5766 C   0  0  0  0  0  0  0  0  0  0  0  0
   -5.6098   -3.4741   -0.5326 C   0  0  0  0  0  0  0  0  0  0  0  0
   -5.6188   -2.4372   -1.4562 C   0  0  0  0  0  0  0  0  0  0  0  0
   -4.7420   -1.3462   -1.4772 C   0  0  0  0  0  0  0  0  0  0  0  0
   -5.1588   -4.8180    1.3399 N   0  0  0  0  0  0  0  0  0  0  0  0
   -6.0227   -5.4340    0.3652 C   0  0  0  0  0  0  0  0  0  0  0  0
   -6.2817   -4.6459   -0.6135 N   0  0  0  0  0  0  0  0  0  0  0  0
   -6.6936   -6.7630    0.3551 N   0  0  0  0  0  0  0  0  0  0  0  0
   -7.5776   -7.0531   -0.7539 C   0  0  0  0  0  0  0  0  0  0  0  0
   -7.7833   -6.1132   -1.7575 O   0  0  0  0  0  0  0  0  0  0  0  0
   -8.1945   -8.1063   -0.8883 O   0  0  0  0  0  0  0  0  0  0  0  0
   -8.6425   -6.3278   -2.8729 C   0  0  0  0  0  0  0  0  0  0  0  0
    2.1319    0.0646   -2.2412 H   0  0  0  0  0  0  0  0  0  0  0  0
    0.3768   -1.4255   -3.0625 H   0  0  0  0  0  0  0  0  0  0  0  0
   -1.8573   -1.3760   -2.0903 H   0  0  0  0  0  0  0  0  0  0  0  0
   -0.6473    1.7390    0.5305 H   0  0  0  0  0  0  0  0  0  0  0  0
    1.5037    1.9625   -0.7305 H   0  0  0  0  0  0  0  0  0  0  0  0
   -3.3171   -1.8310    1.5363 H   0  0  0  0  0  0  0  0  0  0  0  0
   -6.3826   -2.5658   -2.1981 H   0  0  0  0  0  0  0  0  0  0  0  0
   -4.6932   -0.7383   -2.3873 H   0  0  0  0  0  0  0  0  0  0  0  0
   -4.5900   -4.3871    1.9665 H   0  0  0  0  0  0  0  0  0  0  0  0
   -6.5797   -7.4767    1.0651 H   0  0  0  0  0  0  0  0  0  0  0  0
   -8.2794   -7.1834   -3.4387 H   0  0  0  0  0  0  0  0  0  0  0  0
   -9.6552   -6.4942   -2.5111 H   0  0  0  0  0  0  0  0  0  0  0  0
   -8.6549   -5.4521   -3.5420 H   0  0  0  0  0  0  0  0  0  0  0  0
  1  2  2  0  0  0  0
  1 22  1  0  0  0  0
  2  3  1  0  0  0  0
  2 23  1  0  0  0  0
  3  4  2  0  0  0  0
  3 24  1  0  0  0  0
  4  5  1  0  0  0  0
  4  7  1  0  0  0  0
  5  6  2  0  0  0  0
  5 25  1  0  0  0  0
  6  1  1  0  0  0  0
  6 26  1  0  0  0  0
  7  8  1  0  0  0  0
  8  9  2  0  0  0  0
  9 10  1  0  0  0  0
  9 27  1  0  0  0  0
 10 11  2  0  0  0  0
 10 14  1  0  0  0  0
 11 12  1  0  0  0  0
 12 13  2  0  0  0  0
 12 28  1  0  0  0  0
 13  8  1  0  0  0  0
 13 29  1  0  0  0  0
 14 15  1  0  0  0  0
 14 30  1  0  0  0  0
 15 16  2  0  0  0  0
 15 17  1  0  0  0  0
 16 11  1  0  0  0  0
 17 18  1  0  0  0  0
 17 31  1  0  0  0  0
 18 19  1  0  0  0  0
 18 20  2  0  0  0  0
 19 21  1  0  0  0  0
 21 32  1  0  0  0  0
 21 33  1  0  0  0  0
 21 34  1  0  0  0  0
M  END
>  <Mol_ID>
745

>  <Formula>
C15H13N3O2S

>  <MolWeight>
299.34762

>  <Cat>
S2468

>  <Name>
Fenbendazole

>  <Synonyms>
Fenbendazol,Phenbendasol

>  <Target>
Parasite

>  <Form>
free base

>  <CAS>
43210-67-9

>  <URL>
http://selleckchem.com/products/Fenbendazole(Panacur).html

$$$$
