Finasteride.cdx
 OpenBabel08302521562D

 63 66  0  0  0  0  0  0  0  0999 V2000
    1.2082    2.8000    0.0000 C   0  0  0  0  0  0  0  0  0  0  0  0
    1.2082    1.4000    0.0000 C   0  0  0  0  0  0  0  0  0  0  0  0
    2.4207    0.7000    0.0000 N   0  0  0  0  0  0  0  0  0  0  0  0
    3.6331    1.4000    0.0000 C   0  0  1  0  0  0  0  0  0  0  0  0
    3.6331    2.8000    0.0000 C   0  0  2  0  0  0  0  0  0  0  0  0
    2.4207    3.5000    0.0000 C   0  0  0  0  0  0  0  0  0  0  0  0
    4.8455    0.7000    0.0000 C   0  0  0  0  0  0  0  0  0  0  0  0
    6.0580    1.4000    0.0000 C   0  0  0  0  0  0  0  0  0  0  0  0
    6.0580    2.8000    0.0000 C   0  0  2  0  0  0  0  0  0  0  0  0
    4.8455    3.5000    0.0000 C   0  0  2  0  0  0  0  0  0  0  0  0
    7.2704    3.5000    0.0000 C   0  0  1  0  0  0  0  0  0  0  0  0
    7.2704    4.9000    0.0000 C   0  0  2  0  0  0  0  0  0  0  0  0
    6.0580    5.6000    0.0000 C   0  0  0  0  0  0  0  0  0  0  0  0
    4.8455    4.9000    0.0000 C   0  0  0  0  0  0  0  0  0  0  0  0
    8.6019    3.0674    0.0000 C   0  0  0  0  0  0  0  0  0  0  0  0
    9.4248    4.2000    0.0000 C   0  0  0  0  0  0  0  0  0  0  0  0
    8.6019    5.3326    0.0000 C   0  0  2  0  0  0  0  0  0  0  0  0
    0.0000    0.7024    0.0000 O   0  0  0  0  0  0  0  0  0  0  0  0
    3.6331    4.2000    0.0000 C   0  0  0  0  0  0  0  0  0  0  0  0
    7.6328    6.2523    0.0000 C   0  0  0  0  0  0  0  0  0  0  0  0
    9.0330    6.6595    0.0000 C   0  0  0  0  0  0  0  0  0  0  0  0
    8.0995    7.6963    0.0000 N   0  0  0  0  0  0  0  0  0  0  0  0
   10.3977    6.9495    0.0000 O   0  0  0  0  0  0  0  0  0  0  0  0
    8.7995    8.9087    0.0000 C   0  0  0  0  0  0  0  0  0  0  0  0
    9.4995   10.1211    0.0000 C   0  0  0  0  0  0  0  0  0  0  0  0
    7.5870    9.6087    0.0000 C   0  0  0  0  0  0  0  0  0  0  0  0
   10.1518    8.5464    0.0000 C   0  0  0  0  0  0  0  0  0  0  0  0
    0.3145    3.3160    0.0000 H   0  0  0  0  0  0  0  0  0  0  0  0
    2.4207   -0.2845    0.0000 H   0  0  0  0  0  0  0  0  0  0  0  0
    3.6331    0.3300    0.0000 H   0  0  0  0  0  0  0  0  0  0  0  0
    2.4207    4.5320    0.0000 H   0  0  0  0  0  0  0  0  0  0  0  0
    4.8455   -0.3700    0.0000 H   0  0  0  0  0  0  0  0  0  0  0  0
    5.7721    0.1650    0.0000 H   0  0  0  0  0  0  0  0  0  0  0  0
    6.9846    0.8650    0.0000 H   0  0  0  0  0  0  0  0  0  0  0  0
    6.9847    1.9350    0.0000 H   0  0  0  0  0  0  0  0  0  0  0  0
    5.1314    2.2650    0.0000 H   0  0  0  0  0  0  0  0  0  0  0  0
    5.7721    4.0350    0.0000 H   0  0  0  0  0  0  0  0  0  0  0  0
    7.3823    2.4359    0.0000 H   0  0  0  0  0  0  0  0  0  0  0  0
    6.0580    6.6700    0.0000 H   0  0  0  0  0  0  0  0  0  0  0  0
    5.1314    6.1350    0.0000 H   0  0  0  0  0  0  0  0  0  0  0  0
    3.9189    5.4350    0.0000 H   0  0  0  0  0  0  0  0  0  0  0  0
    4.8455    5.9700    0.0000 H   0  0  0  0  0  0  0  0  0  0  0  0
    8.9326    2.0498    0.0000 H   0  0  0  0  0  0  0  0  0  0  0  0
    9.6587    2.9000    0.0000 H   0  0  0  0  0  0  0  0  0  0  0  0
   10.4948    4.2000    0.0000 H   0  0  0  0  0  0  0  0  0  0  0  0
    9.9106    5.1534    0.0000 H   0  0  0  0  0  0  0  0  0  0  0  0
    9.6587    5.5000    0.0000 H   0  0  0  0  0  0  0  0  0  0  0  0
    4.5597    4.7350    0.0000 H   0  0  0  0  0  0  0  0  0  0  0  0
    2.7065    4.7350    0.0000 H   0  0  0  0  0  0  0  0  0  0  0  0
    3.6331    5.2700    0.0000 H   0  0  0  0  0  0  0  0  0  0  0  0
    8.6664    6.5292    0.0000 H   0  0  0  0  0  0  0  0  0  0  0  0
    6.8762    7.0089    0.0000 H   0  0  0  0  0  0  0  0  0  0  0  0
    7.9098    7.2858    0.0000 H   0  0  0  0  0  0  0  0  0  0  0  0
    7.1204    7.5934    0.0000 H   0  0  0  0  0  0  0  0  0  0  0  0
   10.5695   10.1211    0.0000 H   0  0  0  0  0  0  0  0  0  0  0  0
    8.9645   11.0478    0.0000 H   0  0  0  0  0  0  0  0  0  0  0  0
   10.0345   11.0477    0.0000 H   0  0  0  0  0  0  0  0  0  0  0  0
    7.5870   10.6787    0.0000 H   0  0  0  0  0  0  0  0  0  0  0  0
    6.6604    9.0737    0.0000 H   0  0  0  0  0  0  0  0  0  0  0  0
    6.6603   10.1437    0.0000 H   0  0  0  0  0  0  0  0  0  0  0  0
   10.4288    7.5129    0.0000 H   0  0  0  0  0  0  0  0  0  0  0  0
   10.9084    9.3030    0.0000 H   0  0  0  0  0  0  0  0  0  0  0  0
   11.1853    8.2695    0.0000 H   0  0  0  0  0  0  0  0  0  0  0  0
  1  2  1  0  0  0  0
  1 28  1  0  0  0  0
  2  3  1  0  0  0  0
  2 18  2  0  0  0  0
  3  4  1  0  0  0  0
  3 29  1  0  0  0  0
  4  5  1  0  0  0  0
  4  7  1  0  0  0  0
  4 30  1  6  0  0  0
  5  6  1  0  0  0  0
  5 19  1  1  0  0  0
  6  1  2  0  0  0  0
  6 31  1  0  0  0  0
  7  8  1  0  0  0  0
  7 32  1  0  0  0  0
  7 33  1  0  0  0  0
  8 34  1  0  0  0  0
  8 35  1  0  0  0  0
  9  8  1  0  0  0  0
  9 10  1  0  0  0  0
  9 11  1  0  0  0  0
  9 36  1  1  0  0  0
 10  5  1  0  0  0  0
 10 14  1  0  0  0  0
 10 37  1  6  0  0  0
 11 12  1  0  0  0  0
 11 15  1  0  0  0  0
 11 38  1  6  0  0  0
 12 13  1  0  0  0  0
 12 20  1  1  0  0  0
 13 14  1  0  0  0  0
 13 39  1  0  0  0  0
 13 40  1  0  0  0  0
 14 41  1  0  0  0  0
 14 42  1  0  0  0  0
 15 16  1  0  0  0  0
 15 43  1  0  0  0  0
 15 44  1  0  0  0  0
 16 17  1  0  0  0  0
 16 45  1  0  0  0  0
 16 46  1  0  0  0  0
 17 12  1  0  0  0  0
 17 21  1  0  0  0  0
 17 47  1  6  0  0  0
 19 48  1  0  0  0  0
 19 49  1  0  0  0  0
 19 50  1  0  0  0  0
 20 51  1  0  0  0  0
 20 52  1  0  0  0  0
 20 53  1  0  0  0  0
 21 22  1  0  0  0  0
 21 23  2  0  0  0  0
 22 24  1  0  0  0  0
 22 54  1  0  0  0  0
 24 25  1  0  0  0  0
 24 26  1  0  0  0  0
 24 27  1  0  0  0  0
 25 55  1  0  0  0  0
 25 56  1  0  0  0  0
 25 57  1  0  0  0  0
 26 58  1  0  0  0  0
 26 59  1  0  0  0  0
 26 60  1  0  0  0  0
 27 61  1  0  0  0  0
 27 62  1  0  0  0  0
 27 63  1  0  0  0  0
M  END
>  <Mol_ID>
968

>  <Formula>
C23H36N2O2

>  <MolWeight>
372.54414

>  <Cat>
S1197

>  <Name>
Finasteride

>  <Synonyms>
MK-906

>  <Target>
5-alpha Reductase

>  <Form>
free base

>  <CAS>
98319-26-7

>  <URL>
http://selleckchem.com/products/Finasteride.html

$$$$
