FK-3311
 OpenBabel08302521233D

 36 37  0  0  0  0  0  0  0  0999 V2000
    2.2204   -4.0069   -1.1522 C   0  0  0  0  0  0  0  0  0  0  0  0
    0.7991   -3.3834   -2.0160 S   0  0  0  0  0  0  0  0  0  0  0  0
    0.9161   -3.7034   -3.4232 O   0  0  0  0  0  0  0  0  0  0  0  0
   -0.3799   -3.7572   -1.2670 O   0  0  0  0  0  0  0  0  0  0  0  0
    0.9743   -1.7366   -1.8088 N   0  0  0  0  0  0  0  0  0  0  0  0
    1.9295   -0.9989   -2.5589 C   0  0  0  0  0  0  0  0  0  0  0  0
    3.0818   -0.5072   -1.9235 C   0  0  0  0  0  0  0  0  0  0  0  0
    3.9033    0.4125   -2.5805 C   0  0  0  0  0  0  0  0  0  0  0  0
    3.6615    0.7543   -3.9123 C   0  0  0  0  0  0  0  0  0  0  0  0
    2.5644    0.1924   -4.5767 C   0  0  0  0  0  0  0  0  0  0  0  0
    1.6833   -0.6598   -3.8960 C   0  0  0  0  0  0  0  0  0  0  0  0
    3.3498   -0.8964   -0.6252 O   0  0  0  0  0  0  0  0  0  0  0  0
    4.6588   -1.1168   -0.2351 C   0  0  0  0  0  0  0  0  0  0  0  0
    5.6866   -1.6103   -1.0562 C   0  0  0  0  0  0  0  0  0  0  0  0
    6.9692   -1.8244   -0.5594 C   0  0  0  0  0  0  0  0  0  0  0  0
    7.2185   -1.5927    0.7847 C   0  0  0  0  0  0  0  0  0  0  0  0
    6.2133   -1.1219    1.6259 C   0  0  0  0  0  0  0  0  0  0  0  0
    4.9342   -0.8796    1.1146 C   0  0  0  0  0  0  0  0  0  0  0  0
    8.4338   -1.8388    1.2809 F   0  0  0  0  0  0  0  0  0  0  0  0
    5.4697   -1.8891   -2.3484 F   0  0  0  0  0  0  0  0  0  0  0  0
    4.5578    1.7089   -4.6221 C   0  0  0  0  0  0  0  0  0  0  0  0
    4.3455    1.9820   -5.8044 O   0  0  0  0  0  0  0  0  0  0  0  0
    5.7106    2.3232   -3.8664 C   0  0  0  0  0  0  0  0  0  0  0  0
    2.4111   -5.0273   -1.4888 H   0  0  0  0  0  0  0  0  0  0  0  0
    2.0262   -3.9838   -0.0777 H   0  0  0  0  0  0  0  0  0  0  0  0
    3.0866   -3.3974   -1.4024 H   0  0  0  0  0  0  0  0  0  0  0  0
    0.1384   -1.2549   -1.4763 H   0  0  0  0  0  0  0  0  0  0  0  0
    4.7445    0.8341   -2.0433 H   0  0  0  0  0  0  0  0  0  0  0  0
    2.3789    0.4348   -5.6230 H   0  0  0  0  0  0  0  0  0  0  0  0
    0.8129   -1.0506   -4.4192 H   0  0  0  0  0  0  0  0  0  0  0  0
    7.7590   -2.1822   -1.2104 H   0  0  0  0  0  0  0  0  0  0  0  0
    6.4340   -0.9516    2.6746 H   0  0  0  0  0  0  0  0  0  0  0  0
    4.1544   -0.5080    1.7757 H   0  0  0  0  0  0  0  0  0  0  0  0
    5.3517    2.8218   -2.9575 H   0  0  0  0  0  0  0  0  0  0  0  0
    6.4496    1.5549   -3.6147 H   0  0  0  0  0  0  0  0  0  0  0  0
    6.1947    3.0796   -4.4870 H   0  0  0  0  0  0  0  0  0  0  0  0
  1  2  1  0  0  0  0
  1 24  1  0  0  0  0
  1 25  1  0  0  0  0
  1 26  1  0  0  0  0
  2  3  2  0  0  0  0
  2  4  2  0  0  0  0
  2  5  1  0  0  0  0
  5  6  1  0  0  0  0
  5 27  1  0  0  0  0
  6  7  2  0  0  0  0
  6 11  1  0  0  0  0
  7  8  1  0  0  0  0
  7 12  1  0  0  0  0
  8  9  2  0  0  0  0
  8 28  1  0  0  0  0
  9 10  1  0  0  0  0
  9 21  1  0  0  0  0
 10 11  2  0  0  0  0
 10 29  1  0  0  0  0
 11 30  1  0  0  0  0
 12 13  1  0  0  0  0
 13 14  2  0  0  0  0
 13 18  1  0  0  0  0
 14 15  1  0  0  0  0
 14 20  1  0  0  0  0
 15 16  2  0  0  0  0
 15 31  1  0  0  0  0
 16 17  1  0  0  0  0
 16 19  1  0  0  0  0
 17 18  2  0  0  0  0
 17 32  1  0  0  0  0
 18 33  1  0  0  0  0
 21 22  2  0  0  0  0
 21 23  1  0  0  0  0
 23 34  1  0  0  0  0
 23 35  1  0  0  0  0
 23 36  1  0  0  0  0
M  END
>  <Mol_ID>
4897

>  <Formula>
C15H13F2NO4S

>  <MolWeight>
341.3298264

>  <Cat>
S2595

>  <Name>
FK-3311

>  <Synonyms>
COX-2 Inhibitor V

>  <Target>
COX

>  <Form>
Free Base

>  <CAS>
116686-15-8

>  <URL>
http://www.selleckchem.com/products/fk-3311.html

$$$$
