Flavopiridol hydrochloride.cdx
 OpenBabel08302522063D

 48 51  0  0  0  0  0  0  0  0999 V2000
    1.7374    1.1712   -0.8014 C   0  0  0  0  0  0  0  0  0  0  0  0
    2.2089   -0.1419   -0.7543 C   0  0  0  0  0  0  0  0  0  0  0  0
    1.3545   -1.1950   -0.4169 C   0  0  0  0  0  0  0  0  0  0  0  0
   -0.0388   -0.9314   -0.4385 C   0  0  0  0  0  0  0  0  0  0  0  0
   -0.5298    0.3782   -0.4800 C   0  0  0  0  0  0  0  0  0  0  0  0
    0.3823    1.4318   -0.5859 C   0  0  0  0  0  0  0  0  0  0  0  0
   -0.8689   -2.0243   -0.3411 O   0  0  0  0  0  0  0  0  0  0  0  0
   -2.2245   -1.8256   -0.2432 C   0  0  0  0  0  0  0  0  0  0  0  0
   -2.8191   -0.6310   -0.1917 C   0  0  0  0  0  0  0  0  0  0  0  0
   -1.9897    0.5842   -0.2977 C   0  0  0  0  0  0  0  0  0  0  0  0
   -2.5305    1.6766   -0.2324 O   0  0  0  0  0  0  0  0  0  0  0  0
   -0.0213    2.7302   -0.4679 O   0  0  0  0  0  0  0  0  0  0  0  0
    3.5306   -0.3883   -0.9584 O   0  0  0  0  0  0  0  0  0  0  0  0
    1.8185   -2.4030    0.4272 C   0  0  2  0  0  0  0  0  0  0  0  0
    2.1815   -1.9428    1.8661 C   0  0  1  0  0  0  0  0  0  0  0  0
    3.6527   -1.5151    1.9802 C   0  0  0  0  0  0  0  0  0  0  0  0
    4.5972   -2.5771    1.6243 N   0  0  0  0  0  0  0  0  0  0  0  0
    4.3361   -3.1112    0.2787 C   0  0  0  0  0  0  0  0  0  0  0  0
    2.8721   -3.3958   -0.0926 C   0  0  0  0  0  0  0  0  0  0  0  0
    1.3101   -0.9306    2.3800 O   0  0  0  0  0  0  0  0  0  0  0  0
    4.6429   -3.6033    2.6635 C   0  0  0  0  0  0  0  0  0  0  0  0
   -2.9982   -3.0680   -0.1847 C   0  0  0  0  0  0  0  0  0  0  0  0
   -3.5676   -3.6002   -1.3488 C   0  0  0  0  0  0  0  0  0  0  0  0
   -4.2833   -4.7977   -1.2970 C   0  0  0  0  0  0  0  0  0  0  0  0
   -4.4342   -5.4670   -0.0832 C   0  0  0  0  0  0  0  0  0  0  0  0
   -3.8698   -4.9427    1.0794 C   0  0  0  0  0  0  0  0  0  0  0  0
   -3.1511   -3.7472    1.0295 C   0  0  0  0  0  0  0  0  0  0  0  0
    2.4273    1.9957   -0.9549 H   0  0  0  0  0  0  0  0  0  0  0  0
   -3.8870   -0.4957   -0.0802 H   0  0  0  0  0  0  0  0  0  0  0  0
    0.7252    3.2996   -0.2205 H   0  0  0  0  0  0  0  0  0  0  0  0
    4.0089    0.4392   -1.1356 H   0  0  0  0  0  0  0  0  0  0  0  0
    0.9263   -3.0315    0.5464 H   0  0  0  0  0  0  0  0  0  0  0  0
    2.0197   -2.7972    2.5303 H   0  0  0  0  0  0  0  0  0  0  0  0
    3.8556   -0.6318    1.3672 H   0  0  0  0  0  0  0  0  0  0  0  0
    3.8514   -1.1494    2.9934 H   0  0  0  0  0  0  0  0  0  0  0  0
    4.7589   -2.4168   -0.4528 H   0  0  0  0  0  0  0  0  0  0  0  0
    4.9152   -4.0349    0.1349 H   0  0  0  0  0  0  0  0  0  0  0  0
    2.6295   -4.3708    0.3580 H   0  0  0  0  0  0  0  0  0  0  0  0
    2.7757   -3.5385   -1.1752 H   0  0  0  0  0  0  0  0  0  0  0  0
    1.4479   -0.1225    1.8580 H   0  0  0  0  0  0  0  0  0  0  0  0
    3.7097   -4.1683    2.7535 H   0  0  0  0  0  0  0  0  0  0  0  0
    5.4506   -4.3150    2.4673 H   0  0  0  0  0  0  0  0  0  0  0  0
    4.8628   -3.1486    3.6357 H   0  0  0  0  0  0  0  0  0  0  0  0
   -3.4451   -3.0938   -2.3038 H   0  0  0  0  0  0  0  0  0  0  0  0
   -4.7174   -5.2117   -2.2035 H   0  0  0  0  0  0  0  0  0  0  0  0
   -4.9888   -6.4010   -0.0446 H   0  0  0  0  0  0  0  0  0  0  0  0
   -3.9862   -5.4663    2.0245 H   0  0  0  0  0  0  0  0  0  0  0  0
   -2.7055   -3.3520    1.9396 H   0  0  0  0  0  0  0  0  0  0  0  0
  1  2  2  0  0  0  0
  1 28  1  0  0  0  0
  2  3  1  0  0  0  0
  2 13  1  0  0  0  0
  3  4  2  0  0  0  0
  4  5  1  0  0  0  0
  4  7  1  0  0  0  0
  5  6  2  0  0  0  0
  6  1  1  0  0  0  0
  6 12  1  0  0  0  0
  7  8  1  0  0  0  0
  8  9  2  0  0  0  0
  8 22  1  0  0  0  0
  9 10  1  0  0  0  0
  9 29  1  0  0  0  0
 10  5  1  0  0  0  0
 10 11  2  0  0  0  0
 12 30  1  0  0  0  0
 13 31  1  0  0  0  0
 14  3  1  0  0  0  0
 14 15  1  0  0  0  0
 14 32  1  1  0  0  0
 15 16  1  0  0  0  0
 15 20  1  0  0  0  0
 15 33  1  1  0  0  0
 16 17  1  0  0  0  0
 16 34  1  0  0  0  0
 16 35  1  0  0  0  0
 17 18  1  0  0  0  0
 17 21  1  0  0  0  0
 18 19  1  0  0  0  0
 18 36  1  0  0  0  0
 18 37  1  0  0  0  0
 19 14  1  0  0  0  0
 19 38  1  0  0  0  0
 19 39  1  0  0  0  0
 20 40  1  0  0  0  0
 21 41  1  0  0  0  0
 21 42  1  0  0  0  0
 21 43  1  0  0  0  0
 22 23  2  0  0  0  0
 23 24  1  0  0  0  0
 23 44  1  0  0  0  0
 24 25  2  0  0  0  0
 24 45  1  0  0  0  0
 25 26  1  0  0  0  0
 25 46  1  0  0  0  0
 26 27  2  0  0  0  0
 26 47  1  0  0  0  0
 27 22  1  0  0  0  0
 27 48  1  0  0  0  0
M  END
>  <Mol_ID>
1469

>  <Formula>
C21H20ClNO5

>  <MolWeight>
401.8402

>  <Cat>
S1230

>  <Name>
Flavopiridol (L86-8275)

>  <Synonyms>
NSC 649890 HCl, HMR-1275, Alvocidib

>  <Target>
Autophagy,CDK,HIV

>  <Form>
Free Base

>  <CAS>
146426-40-6

>  <URL>
http://selleckchem.com/products/Flavopiridol.html

$$$$
