Flavoxate HCL.cdx
 OpenBabel08302521383D

 54 57  0  0  0  0  0  0  0  0999 V2000
    0.5928   -0.8559    0.5331 C   0  0  0  0  0  0  0  0  0  0  0  0
    0.2143    0.4807    0.6155 C   0  0  0  0  0  0  0  0  0  0  0  0
    1.9416   -1.1997    0.6873 C   0  0  0  0  0  0  0  0  0  0  0  0
   -0.3258   -1.8519    0.3328 O   0  0  0  0  0  0  0  0  0  0  0  0
   -1.1935    0.8391    0.3830 C   0  0  0  0  0  0  0  0  0  0  0  0
    1.1574    1.4746    0.9066 C   0  0  0  0  0  0  0  0  0  0  0  0
    2.4339   -2.5822    0.4832 C   0  0  0  0  0  0  0  0  0  0  0  0
    2.8828   -0.2109    1.0147 C   0  0  0  0  0  0  0  0  0  0  0  0
   -1.6630   -1.5275    0.2449 C   0  0  0  0  0  0  0  0  0  0  0  0
   -2.1627   -0.2778    0.2481 C   0  0  0  0  0  0  0  0  0  0  0  0
   -1.5356    2.0135    0.3142 O   0  0  0  0  0  0  0  0  0  0  0  0
    2.4887    1.1246    1.1282 C   0  0  0  0  0  0  0  0  0  0  0  0
    1.7973   -3.1062   -0.5931 O   0  0  0  0  0  0  0  0  0  0  0  0
    3.3284   -3.0857    1.1374 O   0  0  0  0  0  0  0  0  0  0  0  0
   -2.5169   -2.7186    0.1526 C   0  0  0  0  0  0  0  0  0  0  0  0
   -3.6164    0.0692    0.1370 C   0  0  0  0  0  0  0  0  0  0  0  0
    2.2813   -4.3546   -1.1110 C   0  0  0  0  0  0  0  0  0  0  0  0
   -2.8314   -3.2726   -1.0937 C   0  0  0  0  0  0  0  0  0  0  0  0
   -3.0083   -3.3195    1.3184 C   0  0  0  0  0  0  0  0  0  0  0  0
    3.0330   -4.1004   -2.4316 C   0  0  0  0  0  0  0  0  0  0  0  0
   -3.6403   -4.4079   -1.1721 C   0  0  0  0  0  0  0  0  0  0  0  0
   -3.8162   -4.4549    1.2373 C   0  0  0  0  0  0  0  0  0  0  0  0
    4.2365   -3.2581   -2.2943 N   0  0  0  0  0  0  0  0  0  0  0  0
   -4.1337   -4.9963   -0.0075 C   0  0  0  0  0  0  0  0  0  0  0  0
    5.3006   -3.9312   -1.5352 C   0  0  0  0  0  0  0  0  0  0  0  0
    4.7497   -2.8528   -3.6109 C   0  0  0  0  0  0  0  0  0  0  0  0
    6.4556   -2.9677   -1.2665 C   0  0  0  0  0  0  0  0  0  0  0  0
    5.8701   -1.8252   -3.4475 C   0  0  0  0  0  0  0  0  0  0  0  0
    6.9909   -2.3289   -2.5434 C   0  0  0  0  0  0  0  0  0  0  0  0
    0.8520    2.5173    0.9694 H   0  0  0  0  0  0  0  0  0  0  0  0
    3.9279   -0.4794    1.1640 H   0  0  0  0  0  0  0  0  0  0  0  0
    3.2193    1.8919    1.3703 H   0  0  0  0  0  0  0  0  0  0  0  0
   -4.0279   -0.2910   -0.8118 H   0  0  0  0  0  0  0  0  0  0  0  0
   -4.1837   -0.3752    0.9610 H   0  0  0  0  0  0  0  0  0  0  0  0
   -3.7944    1.1479    0.1752 H   0  0  0  0  0  0  0  0  0  0  0  0
    2.8774   -4.9128   -0.3828 H   0  0  0  0  0  0  0  0  0  0  0  0
    1.3965   -4.9658   -1.3232 H   0  0  0  0  0  0  0  0  0  0  0  0
   -2.4446   -2.8266   -2.0070 H   0  0  0  0  0  0  0  0  0  0  0  0
   -2.7602   -2.9102    2.2951 H   0  0  0  0  0  0  0  0  0  0  0  0
    3.2787   -5.0570   -2.9079 H   0  0  0  0  0  0  0  0  0  0  0  0
    2.3287   -3.5775   -3.0931 H   0  0  0  0  0  0  0  0  0  0  0  0
   -3.8834   -4.8355   -2.1414 H   0  0  0  0  0  0  0  0  0  0  0  0
   -4.1942   -4.9183    2.1450 H   0  0  0  0  0  0  0  0  0  0  0  0
   -4.7625   -5.8808   -0.0701 H   0  0  0  0  0  0  0  0  0  0  0  0
    5.6625   -4.8165   -2.0742 H   0  0  0  0  0  0  0  0  0  0  0  0
    4.9381   -4.2792   -0.5643 H   0  0  0  0  0  0  0  0  0  0  0  0
    3.9529   -2.3910   -4.2065 H   0  0  0  0  0  0  0  0  0  0  0  0
    5.1131   -3.7217   -4.1758 H   0  0  0  0  0  0  0  0  0  0  0  0
    7.2665   -3.5042   -0.7600 H   0  0  0  0  0  0  0  0  0  0  0  0
    6.1182   -2.1818   -0.5790 H   0  0  0  0  0  0  0  0  0  0  0  0
    5.4540   -0.8997   -3.0299 H   0  0  0  0  0  0  0  0  0  0  0  0
    6.2827   -1.5706   -4.4308 H   0  0  0  0  0  0  0  0  0  0  0  0
    7.6592   -1.4987   -2.2864 H   0  0  0  0  0  0  0  0  0  0  0  0
    7.5932   -3.0641   -3.0898 H   0  0  0  0  0  0  0  0  0  0  0  0
  1  2  2  0  0  0  0
  1  3  1  0  0  0  0
  1  4  1  0  0  0  0
  2  5  1  0  0  0  0
  2  6  1  0  0  0  0
  3  7  1  0  0  0  0
  3  8  2  0  0  0  0
  4  9  1  0  0  0  0
  5 10  1  0  0  0  0
  5 11  2  0  0  0  0
  6 12  2  0  0  0  0
  6 30  1  0  0  0  0
  7 13  1  0  0  0  0
  7 14  2  0  0  0  0
  8 12  1  0  0  0  0
  8 31  1  0  0  0  0
  9 15  1  0  0  0  0
  9 10  2  0  0  0  0
 10 16  1  0  0  0  0
 12 32  1  0  0  0  0
 13 17  1  0  0  0  0
 15 18  2  0  0  0  0
 15 19  1  0  0  0  0
 16 33  1  0  0  0  0
 16 34  1  0  0  0  0
 16 35  1  0  0  0  0
 17 20  1  0  0  0  0
 17 36  1  0  0  0  0
 17 37  1  0  0  0  0
 18 21  1  0  0  0  0
 18 38  1  0  0  0  0
 19 22  2  0  0  0  0
 19 39  1  0  0  0  0
 20 23  1  0  0  0  0
 20 40  1  0  0  0  0
 20 41  1  0  0  0  0
 21 24  2  0  0  0  0
 21 42  1  0  0  0  0
 22 24  1  0  0  0  0
 22 43  1  0  0  0  0
 23 25  1  0  0  0  0
 23 26  1  0  0  0  0
 24 44  1  0  0  0  0
 25 27  1  0  0  0  0
 25 45  1  0  0  0  0
 25 46  1  0  0  0  0
 26 28  1  0  0  0  0
 26 47  1  0  0  0  0
 26 48  1  0  0  0  0
 27 29  1  0  0  0  0
 27 49  1  0  0  0  0
 27 50  1  0  0  0  0
 28 29  1  0  0  0  0
 28 51  1  0  0  0  0
 28 52  1  0  0  0  0
 29 53  1  0  0  0  0
 29 54  1  0  0  0  0
M  END
>  <Mol_ID>
7742

>  <Formula>
C24H26ClNO4

>  <MolWeight>
427.92054

>  <Cat>
S4027

>  <Name>
Flavoxate HCl

>  <Synonyms>
NSC-114649

>  <Target>
AChR

>  <Form>
hydrochloride

>  <CAS>
3717-88-2

>  <URL>
http://selleckchem.com/products/flavoxate-hcl.html

$$$$
