Florfenicol.cdx
 OpenBabel08302522043D

 35 35  0  0  0  0  0  0  0  0999 V2000
   -4.2291    2.9495    3.3167 C   0  0  0  0  0  0  0  0  0  0  0  0
   -5.1272    2.6270    2.3002 C   0  0  0  0  0  0  0  0  0  0  0  0
   -4.7086    1.8003    1.2508 C   0  0  0  0  0  0  0  0  0  0  0  0
   -3.3909    1.3056    1.1880 C   0  0  0  0  0  0  0  0  0  0  0  0
   -2.5280    1.6306    2.2485 C   0  0  0  0  0  0  0  0  0  0  0  0
   -2.9289    2.4555    3.2952 C   0  0  0  0  0  0  0  0  0  0  0  0
   -4.7021    4.0366    4.6356 S   0  0  0  0  0  0  0  0  0  0  0  0
   -2.9653    0.4027    0.0272 C   0  0  2  0  0  0  0  0  0  0  0  0
   -1.4305    0.2832   -0.2939 C   0  0  2  0  0  0  0  0  0  0  0  0
   -0.6406   -0.3534    0.7715 N   0  0  0  0  0  0  0  0  0  0  0  0
   -0.8655   -1.6549    1.1591 C   0  0  0  0  0  0  0  0  0  0  0  0
   -0.1890   -2.0285    2.4506 C   0  0  0  0  0  0  0  0  0  0  0  0
   -1.5640   -2.4371    0.5274 O   0  0  0  0  0  0  0  0  0  0  0  0
   -0.8467    1.6414   -0.7059 C   0  0  0  0  0  0  0  0  0  0  0  0
   -1.4702    2.0710   -1.8381 F   0  0  0  0  0  0  0  0  0  0  0  0
   -3.6880    0.7963   -1.1524 O   0  0  0  0  0  0  0  0  0  0  0  0
   -5.3012    2.9303    5.8844 C   0  0  0  0  0  0  0  0  0  0  0  0
   -3.4895    4.6579    5.1363 O   0  0  0  0  0  0  0  0  0  0  0  0
   -5.8122    4.8450    4.1662 O   0  0  0  0  0  0  0  0  0  0  0  0
   -6.1433    3.0164    2.3058 H   0  0  0  0  0  0  0  0  0  0  0  0
   -5.4208    1.5497    0.4634 H   0  0  0  0  0  0  0  0  0  0  0  0
   -1.5135    1.2683    2.2950 H   0  0  0  0  0  0  0  0  0  0  0  0
   -2.2185    2.7127    4.0800 H   0  0  0  0  0  0  0  0  0  0  0  0
   -3.3433   -0.5962    0.2749 H   0  0  0  0  0  0  0  0  0  0  0  0
   -1.3469   -0.3723   -1.1717 H   0  0  0  0  0  0  0  0  0  0  0  0
    0.0012    0.2067    1.3185 H   0  0  0  0  0  0  0  0  0  0  0  0
   -0.7665   -2.8177    2.9411 H   0  0  0  0  0  0  0  0  0  0  0  0
    0.8249   -2.3818    2.2523 H   0  0  0  0  0  0  0  0  0  0  0  0
   -0.1548   -1.1712    3.1307 H   0  0  0  0  0  0  0  0  0  0  0  0
   -0.9802    2.4099    0.0606 H   0  0  0  0  0  0  0  0  0  0  0  0
    0.2241    1.5669   -0.9183 H   0  0  0  0  0  0  0  0  0  0  0  0
   -3.1345    1.4203   -1.6605 H   0  0  0  0  0  0  0  0  0  0  0  0
   -4.5028    2.2385    6.1637 H   0  0  0  0  0  0  0  0  0  0  0  0
   -5.5904    3.5284    6.7509 H   0  0  0  0  0  0  0  0  0  0  0  0
   -6.1660    2.3899    5.4969 H   0  0  0  0  0  0  0  0  0  0  0  0
  1  2  2  0  0  0  0
  1  7  1  0  0  0  0
  2  3  1  0  0  0  0
  2 20  1  0  0  0  0
  3  4  2  0  0  0  0
  3 21  1  0  0  0  0
  4  5  1  0  0  0  0
  5  6  2  0  0  0  0
  5 22  1  0  0  0  0
  6  1  1  0  0  0  0
  6 23  1  0  0  0  0
  7 17  1  0  0  0  0
  7 18  2  0  0  0  0
  7 19  2  0  0  0  0
  8 16  1  0  0  0  0
  8 24  1  1  0  0  0
  8  9  1  0  0  0  0
  8  4  1  0  0  0  0
  9 25  1  6  0  0  0
  9 14  1  0  0  0  0
  9 10  1  0  0  0  0
 10 11  1  0  0  0  0
 10 26  1  0  0  0  0
 11 12  1  0  0  0  0
 11 13  2  0  0  0  0
 12 27  1  0  0  0  0
 12 28  1  0  0  0  0
 12 29  1  0  0  0  0
 14 15  1  0  0  0  0
 14 30  1  0  0  0  0
 14 31  1  0  0  0  0
 16 32  1  0  0  0  0
 17 33  1  0  0  0  0
 17 34  1  0  0  0  0
 17 35  1  0  0  0  0
M  END
>  <Mol_ID>
1311

>  <Formula>
C12H14Cl2FNO4S

>  <MolWeight>
358.2132632

>  <Cat>
S4201

>  <Name>
Florfenicol

>  <Synonyms>
SCH-25298,(-)-Florfenicol

>  <Target>
Bacterial

>  <Form>
free base

>  <CAS>
73231-34-2

>  <URL>
http://selleckchem.com/products/florfenicol.html

$$$$
