Fluconazole.cdx
 OpenBabel08302519523D

 34 36  0  0  0  0  0  0  0  0999 V2000
   -1.1407   -1.1448   -0.1829 C   0  0  0  0  0  0  0  0  0  0  0  0
   -0.7604   -0.2518   -1.2044 C   0  0  0  0  0  0  0  0  0  0  0  0
    0.5346    0.2756   -1.2566 C   0  0  0  0  0  0  0  0  0  0  0  0
    1.4654   -0.0811   -0.2910 C   0  0  0  0  0  0  0  0  0  0  0  0
    1.1209   -0.9309    0.7450 C   0  0  0  0  0  0  0  0  0  0  0  0
    2.7097    0.4063   -0.3636 F   0  0  0  0  0  0  0  0  0  0  0  0
   -0.1718   -1.4444    0.7959 C   0  0  0  0  0  0  0  0  0  0  0  0
   -0.4824   -2.2410    1.8295 F   0  0  0  0  0  0  0  0  0  0  0  0
   -2.5230   -1.8134   -0.1256 C   0  0  0  0  0  0  0  0  0  0  0  0
   -3.2900   -1.4561    1.1728 C   0  0  0  0  0  0  0  0  0  0  0  0
   -3.3753   -1.5744   -1.4080 C   0  0  0  0  0  0  0  0  0  0  0  0
   -2.2266   -3.2318   -0.0685 O   0  0  0  0  0  0  0  0  0  0  0  0
   -4.6709   -2.2207   -1.3631 N   0  0  0  0  0  0  0  0  0  0  0  0
   -4.7597   -3.5514   -1.1569 N   0  0  0  0  0  0  0  0  0  0  0  0
   -6.0850   -3.7207   -1.1255 C   0  0  0  0  0  0  0  0  0  0  0  0
   -6.8172   -2.5772   -1.2550 N   0  0  0  0  0  0  0  0  0  0  0  0
   -5.9011   -1.6473   -1.3981 C   0  0  0  0  0  0  0  0  0  0  0  0
   -3.5414   -0.0493    1.3641 N   0  0  0  0  0  0  0  0  0  0  0  0
   -4.2643    0.6571    0.4753 N   0  0  0  0  0  0  0  0  0  0  0  0
   -4.2892    1.8612    1.0628 C   0  0  0  0  0  0  0  0  0  0  0  0
   -3.6248    1.9417    2.2520 N   0  0  0  0  0  0  0  0  0  0  0  0
   -3.1739    0.7212    2.4221 C   0  0  0  0  0  0  0  0  0  0  0  0
   -1.4463    0.0535   -1.9896 H   0  0  0  0  0  0  0  0  0  0  0  0
    0.8236    0.9558   -2.0530 H   0  0  0  0  0  0  0  0  0  0  0  0
    1.8501   -1.2003    1.5005 H   0  0  0  0  0  0  0  0  0  0  0  0
   -4.2610   -1.9627    1.2205 H   0  0  0  0  0  0  0  0  0  0  0  0
   -2.7522   -1.8191    2.0561 H   0  0  0  0  0  0  0  0  0  0  0  0
   -3.5489   -0.5137   -1.6115 H   0  0  0  0  0  0  0  0  0  0  0  0
   -2.8699   -1.9946   -2.2880 H   0  0  0  0  0  0  0  0  0  0  0  0
   -3.0697   -3.7210   -0.1992 H   0  0  0  0  0  0  0  0  0  0  0  0
   -6.5271   -4.7000   -0.9909 H   0  0  0  0  0  0  0  0  0  0  0  0
   -6.0693   -0.5841   -1.5048 H   0  0  0  0  0  0  0  0  0  0  0  0
   -4.8031    2.7013    0.6123 H   0  0  0  0  0  0  0  0  0  0  0  0
   -2.6053    0.3526    3.2656 H   0  0  0  0  0  0  0  0  0  0  0  0
  1  2  2  0  0  0  0
  1  9  1  0  0  0  0
  2  3  1  0  0  0  0
  2 23  1  0  0  0  0
  3  4  2  0  0  0  0
  3 24  1  0  0  0  0
  4  5  1  0  0  0  0
  4  6  1  0  0  0  0
  5  7  2  0  0  0  0
  5 25  1  0  0  0  0
  7  1  1  0  0  0  0
  7  8  1  0  0  0  0
  9 10  1  0  0  0  0
  9 11  1  0  0  0  0
  9 12  1  0  0  0  0
 10 18  1  0  0  0  0
 10 26  1  0  0  0  0
 10 27  1  0  0  0  0
 11 13  1  0  0  0  0
 11 28  1  0  0  0  0
 11 29  1  0  0  0  0
 12 30  1  0  0  0  0
 13 14  1  0  0  0  0
 14 15  2  0  0  0  0
 15 16  1  0  0  0  0
 15 31  1  0  0  0  0
 16 17  2  0  0  0  0
 17 13  1  0  0  0  0
 17 32  1  0  0  0  0
 18 19  1  0  0  0  0
 19 20  2  0  0  0  0
 20 21  1  0  0  0  0
 20 33  1  0  0  0  0
 21 22  2  0  0  0  0
 22 18  1  0  0  0  0
 22 34  1  0  0  0  0
M  END
>  <Mol_ID>
207

>  <Formula>
C13H12F2N6O

>  <MolWeight>
306.2707864

>  <Cat>
S1331

>  <Name>
Fluconazole (UK 49858)

>  <Synonyms>
Diflucan, Trican, Alfumet,UK 49858

>  <Target>
Fungal,P450 (e.g. CYP17)

>  <Form>
free base

>  <CAS>
86386-73-4

>  <URL>
http://selleckchem.com/products/Fluconazole.html

$$$$
