Flufenamic acid.cdx
 OpenBabel08302522063D

 30 31  0  0  0  0  0  0  0  0999 V2000
    0.1793   -0.2239   -1.2023 C   0  0  0  0  0  0  0  0  0  0  0  0
   -0.1403    1.0911   -0.5834 C   0  0  0  0  0  0  0  0  0  0  0  0
    0.7016    2.2025   -0.8211 C   0  0  0  0  0  0  0  0  0  0  0  0
    0.3476    3.4303   -0.2385 C   0  0  0  0  0  0  0  0  0  0  0  0
   -0.7962    3.5644    0.5533 C   0  0  0  0  0  0  0  0  0  0  0  0
   -1.5974    2.4559    0.8029 C   0  0  0  0  0  0  0  0  0  0  0  0
   -1.2649    1.2200    0.2516 C   0  0  0  0  0  0  0  0  0  0  0  0
    1.3174   -0.5714   -1.4680 O   0  0  0  0  0  0  0  0  0  0  0  0
   -0.9022   -0.9796   -1.4924 O   0  0  0  0  0  0  0  0  0  0  0  0
    1.8602    2.1114   -1.6272 N   0  0  0  0  0  0  0  0  0  0  0  0
    2.3933    3.0455   -2.5356 C   0  0  0  0  0  0  0  0  0  0  0  0
    1.5996    4.0204   -3.1504 C   0  0  0  0  0  0  0  0  0  0  0  0
    2.1413    4.9485   -4.0529 C   0  0  0  0  0  0  0  0  0  0  0  0
    3.5149    4.9051   -4.3263 C   0  0  0  0  0  0  0  0  0  0  0  0
    4.3226    3.9496   -3.7102 C   0  0  0  0  0  0  0  0  0  0  0  0
    3.7632    3.0245   -2.8244 C   0  0  0  0  0  0  0  0  0  0  0  0
    1.2526    5.9604   -4.7283 C   0  0  0  0  0  0  0  0  0  0  0  0
   -0.0520    5.8851   -4.3417 F   0  0  0  0  0  0  0  0  0  0  0  0
    1.6374    7.2435   -4.4819 F   0  0  0  0  0  0  0  0  0  0  0  0
    1.2451    5.8250   -6.0837 F   0  0  0  0  0  0  0  0  0  0  0  0
    0.9848    4.3035   -0.3799 H   0  0  0  0  0  0  0  0  0  0  0  0
   -1.0430    4.5291    0.9860 H   0  0  0  0  0  0  0  0  0  0  0  0
   -2.4734    2.5554    1.4401 H   0  0  0  0  0  0  0  0  0  0  0  0
   -1.8801    0.3604    0.5058 H   0  0  0  0  0  0  0  0  0  0  0  0
   -1.7602   -0.5228   -1.4321 H   0  0  0  0  0  0  0  0  0  0  0  0
    2.1457    1.1478   -1.8306 H   0  0  0  0  0  0  0  0  0  0  0  0
    0.5301    4.0410   -2.9522 H   0  0  0  0  0  0  0  0  0  0  0  0
    3.9577    5.6138   -5.0242 H   0  0  0  0  0  0  0  0  0  0  0  0
    5.3898    3.9221   -3.9195 H   0  0  0  0  0  0  0  0  0  0  0  0
    4.4094    2.2937   -2.3427 H   0  0  0  0  0  0  0  0  0  0  0  0
  1  2  1  0  0  0  0
  1  8  2  0  0  0  0
  1  9  1  0  0  0  0
  2  3  2  0  0  0  0
  2  7  1  0  0  0  0
  3  4  1  0  0  0  0
  3 10  1  0  0  0  0
  4  5  2  0  0  0  0
  4 21  1  0  0  0  0
  5  6  1  0  0  0  0
  5 22  1  0  0  0  0
  6  7  2  0  0  0  0
  6 23  1  0  0  0  0
  7 24  1  0  0  0  0
  9 25  1  0  0  0  0
 10 11  1  0  0  0  0
 10 26  1  0  0  0  0
 11 12  2  0  0  0  0
 11 16  1  0  0  0  0
 12 13  1  0  0  0  0
 12 27  1  0  0  0  0
 13 14  2  0  0  0  0
 13 17  1  0  0  0  0
 14 15  1  0  0  0  0
 14 28  1  0  0  0  0
 15 16  2  0  0  0  0
 15 29  1  0  0  0  0
 16 30  1  0  0  0  0
 17 18  1  0  0  0  0
 17 19  1  0  0  0  0
 17 20  1  0  0  0  0
M  END
>  <Mol_ID>
1403

>  <Formula>
C14H10F3NO2

>  <MolWeight>
281.2299096

>  <Cat>
S4268

>  <Name>
Flufenamic acid

>  <Synonyms>
N/A

>  <Target>
Immunology & Inflammation related

>  <Form>
free base

>  <CAS>
530-78-9

>  <URL>
http://selleckchem.com/products/flufenamic-acid.html

$$$$
