flumethasone.cdx
 OpenBabel08302522142D

 57 60  0  0  0  0  0  0  0  0999 V2000
    1.2082    3.4951    0.0000 C   0  0  0  0  0  0  0  0  0  0  0  0
    1.2082    2.0951    0.0000 C   0  0  0  0  0  0  0  0  0  0  0  0
    2.4207    1.3951    0.0000 C   0  0  0  0  0  0  0  0  0  0  0  0
    3.6331    2.0951    0.0000 C   0  0  0  0  0  0  0  0  0  0  0  0
    3.6331    3.4951    0.0000 C   0  0  2  0  0  0  0  0  0  0  0  0
    2.4207    4.1951    0.0000 C   0  0  0  0  0  0  0  0  0  0  0  0
    4.8455    1.3951    0.0000 C   0  0  2  0  0  0  0  0  0  0  0  0
    6.0580    2.0951    0.0000 C   0  0  0  0  0  0  0  0  0  0  0  0
    6.0580    3.4951    0.0000 C   0  0  2  0  0  0  0  0  0  0  0  0
    4.8455    4.1951    0.0000 C   0  0  2  0  0  0  0  0  0  0  0  0
    7.2704    4.1951    0.0000 C   0  0  1  0  0  0  0  0  0  0  0  0
    7.2704    5.5951    0.0000 C   0  0  2  0  0  0  0  0  0  0  0  0
    6.0580    6.2951    0.0000 C   0  0  0  0  0  0  0  0  0  0  0  0
    4.8455    5.5951    0.0000 C   0  0  2  0  0  0  0  0  0  0  0  0
    8.6019    3.7625    0.0000 C   0  0  0  0  0  0  0  0  0  0  0  0
    9.4248    4.8951    0.0000 C   0  0  2  0  0  0  0  0  0  0  0  0
    8.6019    6.0278    0.0000 C   0  0  2  0  0  0  0  0  0  0  0  0
    0.0000    1.3976    0.0000 O   0  0  0  0  0  0  0  0  0  0  0  0
    9.0330    7.3546    0.0000 C   0  0  0  0  0  0  0  0  0  0  0  0
    8.0995    8.3914    0.0000 C   0  0  0  0  0  0  0  0  0  0  0  0
   10.3977    7.6447    0.0000 O   0  0  0  0  0  0  0  0  0  0  0  0
    8.5306    9.7183    0.0000 O   0  0  0  0  0  0  0  0  0  0  0  0
    7.4162    6.9826    0.0000 C   0  0  0  0  0  0  0  0  0  0  0  0
    3.6373    6.2927    0.0000 O   0  0  0  0  0  0  0  0  0  0  0  0
    3.6331    4.8903    0.0000 C   0  0  0  0  0  0  0  0  0  0  0  0
    9.9798    6.2460    0.0000 O   0  0  0  0  0  0  0  0  0  0  0  0
    4.8455    0.0000    0.0000 F   0  0  0  0  0  0  0  0  0  0  0  0
    4.8455    2.7951    0.0000 F   0  0  0  0  0  0  0  0  0  0  0  0
   10.8199    4.8951    0.0000 C   0  0  0  0  0  0  0  0  0  0  0  0
    0.3145    4.0111    0.0000 H   0  0  0  0  0  0  0  0  0  0  0  0
    2.4207    0.3631    0.0000 H   0  0  0  0  0  0  0  0  0  0  0  0
    2.4207    5.2271    0.0000 H   0  0  0  0  0  0  0  0  0  0  0  0
    3.9188    0.8601    0.0000 H   0  0  0  0  0  0  0  0  0  0  0  0
    6.9846    1.5601    0.0000 H   0  0  0  0  0  0  0  0  0  0  0  0
    6.9847    2.6301    0.0000 H   0  0  0  0  0  0  0  0  0  0  0  0
    5.1314    2.9601    0.0000 H   0  0  0  0  0  0  0  0  0  0  0  0
    7.3823    3.1310    0.0000 H   0  0  0  0  0  0  0  0  0  0  0  0
    6.0580    7.3651    0.0000 H   0  0  0  0  0  0  0  0  0  0  0  0
    5.1314    6.8301    0.0000 H   0  0  0  0  0  0  0  0  0  0  0  0
    4.8455    6.6651    0.0000 H   0  0  0  0  0  0  0  0  0  0  0  0
    8.9326    2.7449    0.0000 H   0  0  0  0  0  0  0  0  0  0  0  0
    9.6587    3.5951    0.0000 H   0  0  0  0  0  0  0  0  0  0  0  0
    9.9106    3.9417    0.0000 H   0  0  0  0  0  0  0  0  0  0  0  0
    7.0529    8.1689    0.0000 H   0  0  0  0  0  0  0  0  0  0  0  0
    7.3835    9.1866    0.0000 H   0  0  0  0  0  0  0  0  0  0  0  0
    9.4794    9.9200    0.0000 H   0  0  0  0  0  0  0  0  0  0  0  0
    8.3937    7.4178    0.0000 H   0  0  0  0  0  0  0  0  0  0  0  0
    6.5505    7.6115    0.0000 H   0  0  0  0  0  0  0  0  0  0  0  0
    7.5280    8.0467    0.0000 H   0  0  0  0  0  0  0  0  0  0  0  0
    3.6373    7.2627    0.0000 H   0  0  0  0  0  0  0  0  0  0  0  0
    4.5597    5.4253    0.0000 H   0  0  0  0  0  0  0  0  0  0  0  0
    2.7065    5.4253    0.0000 H   0  0  0  0  0  0  0  0  0  0  0  0
    3.6331    5.9603    0.0000 H   0  0  0  0  0  0  0  0  0  0  0  0
   10.5902    5.4922    0.0000 H   0  0  0  0  0  0  0  0  0  0  0  0
   11.3549    3.9685    0.0000 H   0  0  0  0  0  0  0  0  0  0  0  0
   11.3549    5.8217    0.0000 H   0  0  0  0  0  0  0  0  0  0  0  0
   11.8899    4.8951    0.0000 H   0  0  0  0  0  0  0  0  0  0  0  0
  1  2  1  0  0  0  0
  1 30  1  0  0  0  0
  2  3  1  0  0  0  0
  2 18  2  0  0  0  0
  3  4  2  0  0  0  0
  3 31  1  0  0  0  0
  4  5  1  0  0  0  0
  4  7  1  0  0  0  0
  5  6  1  0  0  0  0
  5 25  1  1  0  0  0
  6  1  2  0  0  0  0
  6 32  1  0  0  0  0
  7  8  1  0  0  0  0
  7 27  1  0  0  0  0
  7 33  1  1  0  0  0
  8 34  1  0  0  0  0
  8 35  1  0  0  0  0
  9  8  1  0  0  0  0
  9 10  1  0  0  0  0
  9 11  1  0  0  0  0
  9 36  1  1  0  0  0
 10  5  1  0  0  0  0
 10 28  1  6  0  0  0
 11 12  1  0  0  0  0
 11 15  1  0  0  0  0
 11 37  1  6  0  0  0
 12 13  1  0  0  0  0
 12 23  1  1  0  0  0
 13 14  1  0  0  0  0
 13 38  1  0  0  0  0
 13 39  1  0  0  0  0
 14 10  1  0  0  0  0
 14 24  1  0  0  0  0
 14 40  1  6  0  0  0
 15 16  1  0  0  0  0
 15 41  1  0  0  0  0
 15 42  1  0  0  0  0
 16 17  1  0  0  0  0
 16 29  1  0  0  0  0
 16 43  1  1  0  0  0
 17 12  1  0  0  0  0
 17 26  1  6  0  0  0
 17 19  1  0  0  0  0
 19 20  1  0  0  0  0
 19 21  2  0  0  0  0
 20 22  1  0  0  0  0
 20 44  1  0  0  0  0
 20 45  1  0  0  0  0
 22 46  1  0  0  0  0
 23 47  1  0  0  0  0
 23 48  1  0  0  0  0
 23 49  1  0  0  0  0
 24 50  1  0  0  0  0
 25 51  1  0  0  0  0
 25 52  1  0  0  0  0
 25 53  1  0  0  0  0
 26 54  1  0  0  0  0
 29 55  1  0  0  0  0
 29 56  1  0  0  0  0
 29 57  1  0  0  0  0
M  END
>  <Mol_ID>
1326

>  <Formula>
C22H28F2O5

>  <MolWeight>
410.4515264

>  <Cat>
S4088

>  <Name>
Flumethasone

>  <Synonyms>
RS-2177, NSC-54702,Flumetasone

>  <Target>
Glucocorticoid Receptor

>  <Form>
free base

>  <CAS>
2135-17-3

>  <URL>
http://selleckchem.com/products/flumethasone.html

$$$$
