Fluoxetine hydrochloride.cdx
 OpenBabel08302519523D

 40 41  0  0  0  0  0  0  0  0999 V2000
   -4.4325    3.9323    1.2456 C   0  0  0  0  0  0  0  0  0  0  0  0
   -4.9987    2.7231    1.6620 C   0  0  0  0  0  0  0  0  0  0  0  0
   -4.4251    1.5057    1.2961 C   0  0  0  0  0  0  0  0  0  0  0  0
   -3.2908    1.4718    0.4863 C   0  0  0  0  0  0  0  0  0  0  0  0
   -2.7057    2.6687    0.0800 C   0  0  0  0  0  0  0  0  0  0  0  0
   -3.2742    3.8993    0.4494 C   0  0  0  0  0  0  0  0  0  0  0  0
   -2.6868    0.3074    0.0892 O   0  0  0  0  0  0  0  0  0  0  0  0
   -3.5796   -0.8147   -0.1525 C   0  0  3  0  0  0  0  0  0  0  0  0
   -3.1113   -1.4498   -1.4764 C   0  0  0  0  0  0  0  0  0  0  0  0
   -3.6925   -1.7338    1.0636 C   0  0  0  0  0  0  0  0  0  0  0  0
   -5.0606    5.2393    1.6640 C   0  0  0  0  0  0  0  0  0  0  0  0
   -6.1720    5.0813    2.4394 F   0  0  0  0  0  0  0  0  0  0  0  0
   -4.2115    6.0164    2.3928 F   0  0  0  0  0  0  0  0  0  0  0  0
   -5.4538    6.0003    0.6072 F   0  0  0  0  0  0  0  0  0  0  0  0
   -4.8622   -2.4968    1.2187 C   0  0  0  0  0  0  0  0  0  0  0  0
   -5.1027   -3.2630    2.3600 C   0  0  0  0  0  0  0  0  0  0  0  0
   -4.1798   -3.2652    3.3948 C   0  0  0  0  0  0  0  0  0  0  0  0
   -3.0090   -2.5110    3.2716 C   0  0  0  0  0  0  0  0  0  0  0  0
   -2.7591   -1.7607    2.1132 C   0  0  0  0  0  0  0  0  0  0  0  0
   -3.8685   -2.6798   -1.9910 C   0  0  0  0  0  0  0  0  0  0  0  0
   -5.3324   -2.6386   -1.9731 N   0  0  0  0  0  0  0  0  0  0  0  0
   -5.9248   -1.5727   -2.7622 C   0  0  0  0  0  0  0  0  0  0  0  0
   -5.8909    2.7127    2.2815 H   0  0  0  0  0  0  0  0  0  0  0  0
   -4.8840    0.5984    1.6723 H   0  0  0  0  0  0  0  0  0  0  0  0
   -1.8083    2.6595   -0.5355 H   0  0  0  0  0  0  0  0  0  0  0  0
   -2.8137    4.8260    0.1188 H   0  0  0  0  0  0  0  0  0  0  0  0
   -4.5840   -0.4202   -0.3543 H   0  0  0  0  0  0  0  0  0  0  0  0
   -3.1603   -0.6690   -2.2498 H   0  0  0  0  0  0  0  0  0  0  0  0
   -2.0443   -1.7018   -1.4085 H   0  0  0  0  0  0  0  0  0  0  0  0
   -5.6336   -2.4712    0.4535 H   0  0  0  0  0  0  0  0  0  0  0  0
   -6.0249   -3.8314    2.4381 H   0  0  0  0  0  0  0  0  0  0  0  0
   -4.3784   -3.8349    4.2973 H   0  0  0  0  0  0  0  0  0  0  0  0
   -2.3019   -2.4948    4.0964 H   0  0  0  0  0  0  0  0  0  0  0  0
   -1.8543   -1.1588    2.0662 H   0  0  0  0  0  0  0  0  0  0  0  0
   -3.5355   -2.8914   -3.0148 H   0  0  0  0  0  0  0  0  0  0  0  0
   -3.5568   -3.5452   -1.3945 H   0  0  0  0  0  0  0  0  0  0  0  0
   -5.6870   -3.5377   -2.3049 H   0  0  0  0  0  0  0  0  0  0  0  0
   -5.5989   -1.6061   -3.8007 H   0  0  0  0  0  0  0  0  0  0  0  0
   -7.0154   -1.6877   -2.7442 H   0  0  0  0  0  0  0  0  0  0  0  0
   -5.7069   -0.5881   -2.3443 H   0  0  0  0  0  0  0  0  0  0  0  0
  1  2  2  0  0  0  0
  1 11  1  0  0  0  0
  2  3  1  0  0  0  0
  2 23  1  0  0  0  0
  3  4  2  0  0  0  0
  3 24  1  0  0  0  0
  4  5  1  0  0  0  0
  4  7  1  0  0  0  0
  5  6  2  0  0  0  0
  5 25  1  0  0  0  0
  6  1  1  0  0  0  0
  6 26  1  0  0  0  0
  7  8  1  0  0  0  0
  8  9  1  0  0  0  0
  8 10  1  0  0  0  0
  8 27  1  0  0  0  0
  9 20  1  0  0  0  0
  9 28  1  0  0  0  0
  9 29  1  0  0  0  0
 10 15  2  0  0  0  0
 11 12  1  0  0  0  0
 11 13  1  0  0  0  0
 11 14  1  0  0  0  0
 15 16  1  0  0  0  0
 15 30  1  0  0  0  0
 16 17  2  0  0  0  0
 16 31  1  0  0  0  0
 17 18  1  0  0  0  0
 17 32  1  0  0  0  0
 18 19  2  0  0  0  0
 18 33  1  0  0  0  0
 19 10  1  0  0  0  0
 19 34  1  0  0  0  0
 20 21  1  0  0  0  0
 20 35  1  0  0  0  0
 20 36  1  0  0  0  0
 21 22  1  0  0  0  0
 21 37  1  0  0  0  0
 22 38  1  0  0  0  0
 22 39  1  0  0  0  0
 22 40  1  0  0  0  0
M  END
>  <Mol_ID>
209

>  <Formula>
C17H19ClF3NO

>  <MolWeight>
345.7870696

>  <Cat>
S1333

>  <Name>
Fluoxetine (Lilly 110140) HCl

>  <Synonyms>
Prozac, Sarafem,LY-110140

>  <Target>
5-HT Receptor

>  <Form>
Hydrochloride

>  <CAS>
56296-78-7

>  <URL>
http://selleckchem.com/products/Fluoxetine-hydrochloride.html

$$$$
