Flupirtine maleate.cdx
 OpenBabel08302519523D

 51 51  0  0  0  0  0  0  0  0999 V2000
    0.6583    0.4596    1.0213 C   0  0  0  0  0  0  0  0  0  0  0  0
    0.0190    1.3513    0.1687 C   0  0  0  0  0  0  0  0  0  0  0  0
   -1.3397    1.1872   -0.1093 C   0  0  0  0  0  0  0  0  0  0  0  0
   -2.0752    0.1609    0.5064 C   0  0  0  0  0  0  0  0  0  0  0  0
   -1.4102   -0.7041    1.3921 C   0  0  0  0  0  0  0  0  0  0  0  0
   -0.0417   -0.5711    1.6308 C   0  0  0  0  0  0  0  0  0  0  0  0
   -3.5496   -0.0147    0.2038 C   0  0  0  0  0  0  0  0  0  0  0  0
   -3.7482   -0.7522   -1.0323 N   0  0  0  0  0  0  0  0  0  0  0  0
   -4.2549   -2.0430   -1.0050 C   0  0  0  0  0  0  0  0  0  0  0  0
   -5.2677   -2.3171   -1.8541 N   0  0  0  0  0  0  0  0  0  0  0  0
   -5.6648   -3.6002   -2.0345 C   0  0  0  0  0  0  0  0  0  0  0  0
   -5.0164   -4.6813   -1.4054 C   0  0  0  0  0  0  0  0  0  0  0  0
   -4.0261   -4.3670   -0.4774 C   0  0  0  0  0  0  0  0  0  0  0  0
   -3.6623   -3.0446   -0.2567 C   0  0  0  0  0  0  0  0  0  0  0  0
   -6.6505   -3.7647   -2.9945 N   0  0  0  0  0  0  0  0  0  0  0  0
   -5.2163   -6.0555   -1.6283 N   0  0  0  0  0  0  0  0  0  0  0  0
   -6.2375   -6.7137   -2.2360 C   0  0  0  0  0  0  0  0  0  0  0  0
   -7.3169   -6.2692   -2.6040 O   0  0  0  0  0  0  0  0  0  0  0  0
   -5.8850   -8.0274   -2.2994 O   0  0  0  0  0  0  0  0  0  0  0  0
   -6.8333   -8.9326   -2.8836 C   0  0  0  0  0  0  0  0  0  0  0  0
   -7.8785   -9.3476   -1.8617 C   0  0  0  0  0  0  0  0  0  0  0  0
    1.9833    0.5505    1.2020 F   0  0  0  0  0  0  0  0  0  0  0  0
    1.6538   -0.0678   -1.8618 O   0  0  0  0  0  0  0  0  0  0  0  0
    0.7945   -1.0298   -2.2447 C   0  0  0  0  0  0  0  0  0  0  0  0
    1.3363   -2.3685   -1.9823 C   0  0  0  0  0  0  0  0  0  0  0  0
   -0.2647   -0.8142   -2.8047 O   0  0  0  0  0  0  0  0  0  0  0  0
    0.5385   -3.4342   -2.1356 C   0  0  0  0  0  0  0  0  0  0  0  0
    1.1578   -4.7642   -2.0485 C   0  0  0  0  0  0  0  0  0  0  0  0
    0.2498   -5.7453   -1.9075 O   0  0  0  0  0  0  0  0  0  0  0  0
    2.3597   -4.9617   -2.0771 O   0  0  0  0  0  0  0  0  0  0  0  0
    0.5932    2.1267   -0.3301 H   0  0  0  0  0  0  0  0  0  0  0  0
   -1.8136    1.8482   -0.8326 H   0  0  0  0  0  0  0  0  0  0  0  0
   -1.9530   -1.4971    1.8975 H   0  0  0  0  0  0  0  0  0  0  0  0
    0.4790   -1.2677    2.2796 H   0  0  0  0  0  0  0  0  0  0  0  0
   -4.0702   -0.4642    1.0583 H   0  0  0  0  0  0  0  0  0  0  0  0
   -3.9903    0.9842    0.0860 H   0  0  0  0  0  0  0  0  0  0  0  0
   -4.2984   -0.2368   -1.7156 H   0  0  0  0  0  0  0  0  0  0  0  0
   -3.5131   -5.1449    0.0766 H   0  0  0  0  0  0  0  0  0  0  0  0
   -2.8672   -2.8292    0.4372 H   0  0  0  0  0  0  0  0  0  0  0  0
   -7.0646   -2.8629   -3.2001 H   0  0  0  0  0  0  0  0  0  0  0  0
   -7.3307   -4.4855   -2.7492 H   0  0  0  0  0  0  0  0  0  0  0  0
   -4.5176   -6.6918   -1.2746 H   0  0  0  0  0  0  0  0  0  0  0  0
   -7.2860   -8.5054   -3.7808 H   0  0  0  0  0  0  0  0  0  0  0  0
   -6.2655   -9.8194   -3.1956 H   0  0  0  0  0  0  0  0  0  0  0  0
   -8.5149   -8.5008   -1.5915 H   0  0  0  0  0  0  0  0  0  0  0  0
   -8.5138  -10.1446   -2.2601 H   0  0  0  0  0  0  0  0  0  0  0  0
   -7.4036   -9.6993   -0.9409 H   0  0  0  0  0  0  0  0  0  0  0  0
    2.3080   -0.3481   -1.1927 H   0  0  0  0  0  0  0  0  0  0  0  0
    2.3917   -2.4661   -1.7594 H   0  0  0  0  0  0  0  0  0  0  0  0
   -0.5127   -3.3374   -2.3779 H   0  0  0  0  0  0  0  0  0  0  0  0
   -0.6812   -5.4457   -1.9169 H   0  0  0  0  0  0  0  0  0  0  0  0
  1  2  2  0  0  0  0
  1 22  1  0  0  0  0
  2  3  1  0  0  0  0
  2 31  1  0  0  0  0
  3  4  2  0  0  0  0
  3 32  1  0  0  0  0
  4  5  1  0  0  0  0
  4  7  1  0  0  0  0
  5  6  2  0  0  0  0
  5 33  1  0  0  0  0
  6  1  1  0  0  0  0
  6 34  1  0  0  0  0
  7  8  1  0  0  0  0
  7 35  1  0  0  0  0
  7 36  1  0  0  0  0
  8  9  1  0  0  0  0
  8 37  1  0  0  0  0
  9 10  2  0  0  0  0
 10 11  1  0  0  0  0
 11 12  2  0  0  0  0
 11 15  1  0  0  0  0
 12 13  1  0  0  0  0
 12 16  1  0  0  0  0
 13 14  2  0  0  0  0
 13 38  1  0  0  0  0
 14  9  1  0  0  0  0
 14 39  1  0  0  0  0
 15 40  1  0  0  0  0
 15 41  1  0  0  0  0
 16 17  1  0  0  0  0
 16 42  1  0  0  0  0
 17 18  2  0  0  0  0
 17 19  1  0  0  0  0
 19 20  1  0  0  0  0
 20 21  1  0  0  0  0
 20 43  1  0  0  0  0
 20 44  1  0  0  0  0
 21 45  1  0  0  0  0
 21 46  1  0  0  0  0
 21 47  1  0  0  0  0
 23 24  1  0  0  0  0
 23 48  1  0  0  0  0
 24 25  1  0  0  0  0
 24 26  2  0  0  0  0
 25 27  2  0  0  0  0
 25 49  1  0  0  0  0
 27 28  1  0  0  0  0
 27 50  1  0  0  0  0
 28 29  1  0  0  0  0
 28 30  2  0  0  0  0
 29 51  1  0  0  0  0
M  END
>  <Mol_ID>
210

>  <Formula>
C19H21FN4O6

>  <MolWeight>
420.3916432

>  <Cat>
S1334

>  <Name>
Flupirtine maleate

>  <Synonyms>
N/A

>  <Target>
DNA/RNA Synthesis

>  <Form>
Maleate

>  <CAS>
75507-68-5

>  <URL>
http://selleckchem.com/products/Flupirtine-maleate.html

$$$$
