Flutamide .cdx
 OpenBabel08302519503D

 30 30  0  0  0  0  0  0  0  0999 V2000
    1.4156   -0.2142    0.0642 C   0  0  0  0  0  0  0  0  0  0  0  0
    0.5420   -1.2961   -0.0529 C   0  0  0  0  0  0  0  0  0  0  0  0
   -0.8325   -1.0105   -0.1367 C   0  0  0  0  0  0  0  0  0  0  0  0
   -1.3260    0.2999   -0.1135 C   0  0  0  0  0  0  0  0  0  0  0  0
   -0.4166    1.3630   -0.0548 C   0  0  0  0  0  0  0  0  0  0  0  0
    0.9549    1.1111    0.0474 C   0  0  0  0  0  0  0  0  0  0  0  0
    2.8406   -0.4193    0.2397 N   0  3  0  0  0  0  0  0  0  0  0  0
    3.1996   -0.9405    1.3021 O   0  0  0  0  0  0  0  0  0  0  0  0
    3.5781   -0.0168   -0.6678 O   0  5  0  0  0  0  0  0  0  0  0  0
    0.9576   -2.7397   -0.1076 C   0  0  0  0  0  0  0  0  0  0  0  0
    2.2944   -2.9507   -0.2155 F   0  0  0  0  0  0  0  0  0  0  0  0
    0.5470   -3.4388    0.9837 F   0  0  0  0  0  0  0  0  0  0  0  0
    0.4124   -3.3759   -1.1833 F   0  0  0  0  0  0  0  0  0  0  0  0
   -2.7061    0.5992   -0.1503 N   0  0  0  0  0  0  0  0  0  0  0  0
   -3.7299   -0.2984    0.1227 C   0  0  0  0  0  0  0  0  0  0  0  0
   -5.1379    0.2855   -0.0179 C   0  0  0  0  0  0  0  0  0  0  0  0
   -6.1769   -0.8098    0.2456 C   0  0  0  0  0  0  0  0  0  0  0  0
   -5.3672    1.4532    0.9385 C   0  0  0  0  0  0  0  0  0  0  0  0
   -3.5621   -1.4706    0.4497 O   0  0  0  0  0  0  0  0  0  0  0  0
   -1.5119   -1.8548   -0.2394 H   0  0  0  0  0  0  0  0  0  0  0  0
   -0.7618    2.3953   -0.0478 H   0  0  0  0  0  0  0  0  0  0  0  0
    1.6522    1.9430    0.1309 H   0  0  0  0  0  0  0  0  0  0  0  0
   -2.9589    1.5730   -0.2642 H   0  0  0  0  0  0  0  0  0  0  0  0
   -5.2554    0.6313   -1.0521 H   0  0  0  0  0  0  0  0  0  0  0  0
   -6.0653   -1.2265    1.2540 H   0  0  0  0  0  0  0  0  0  0  0  0
   -7.1965   -0.4250    0.1495 H   0  0  0  0  0  0  0  0  0  0  0  0
   -6.0598   -1.6362   -0.4646 H   0  0  0  0  0  0  0  0  0  0  0  0
   -4.7288    2.3074    0.6922 H   0  0  0  0  0  0  0  0  0  0  0  0
   -6.4055    1.7988    0.8900 H   0  0  0  0  0  0  0  0  0  0  0  0
   -5.1499    1.1658    1.9730 H   0  0  0  0  0  0  0  0  0  0  0  0
  1  2  2  0  0  0  0
  1  7  1  0  0  0  0
  2  3  1  0  0  0  0
  2 10  1  0  0  0  0
  3  4  2  0  0  0  0
  3 20  1  0  0  0  0
  4  5  1  0  0  0  0
  4 14  1  0  0  0  0
  5  6  2  0  0  0  0
  5 21  1  0  0  0  0
  6  1  1  0  0  0  0
  6 22  1  0  0  0  0
  7  8  2  0  0  0  0
  7  9  1  0  0  0  0
 10 11  1  0  0  0  0
 10 12  1  0  0  0  0
 10 13  1  0  0  0  0
 14 15  1  0  0  0  0
 14 23  1  0  0  0  0
 15 16  1  0  0  0  0
 15 19  2  0  0  0  0
 16 17  1  0  0  0  0
 16 18  1  0  0  0  0
 16 24  1  0  0  0  0
 17 25  1  0  0  0  0
 17 26  1  0  0  0  0
 17 27  1  0  0  0  0
 18 28  1  0  0  0  0
 18 29  1  0  0  0  0
 18 30  1  0  0  0  0
M  CHG  2   7   1   9  -1
M  END
>  <Mol_ID>
182

>  <Formula>
C11H11F3N2O3

>  <MolWeight>
276.2118496

>  <Cat>
S1908

>  <Name>
Flutamide

>  <Synonyms>
SCH-13521

>  <Target>
Androgen Receptor

>  <Form>
free base

>  <CAS>
13311-84-7

>  <URL>
http://selleckchem.com/products/Flutamide(Eulexin).html

$$$$
