Fluvoxamine maleate.cdx
 OpenBabel08302522013D

 55 54  0  0  0  0  0  0  0  0999 V2000
    1.8453    0.5283    1.5036 C   0  0  0  0  0  0  0  0  0  0  0  0
    1.2202    2.0013    0.5950 C   0  0  0  0  0  0  0  0  0  0  0  0
   -0.5046    2.0382    0.0187 C   0  0  0  0  0  0  0  0  0  0  0  0
   -1.6349    0.6411    0.3374 C   0  0  0  0  0  0  0  0  0  0  0  0
   -1.0150   -0.7839    1.3319 C   0  0  0  0  0  0  0  0  0  0  0  0
    0.7085   -0.8355    1.8915 C   0  0  0  0  0  0  0  0  0  0  0  0
    3.3116    0.3901    1.8108 C   0  0  0  0  0  0  0  0  0  0  0  0
    4.0558    1.4096    1.3023 F   0  0  0  0  0  0  0  0  0  0  0  0
    3.6005    0.3128    3.1331 F   0  0  0  0  0  0  0  0  0  0  0  0
    3.8140   -0.7449    1.2459 F   0  0  0  0  0  0  0  0  0  0  0  0
   -3.1014    0.6867    0.0560 C   0  0  0  0  0  0  0  0  0  0  0  0
   -3.6987    2.0072   -0.3837 C   0  0  0  0  0  0  0  0  0  0  0  0
   -4.5743    2.5857    0.7292 C   0  0  0  0  0  0  0  0  0  0  0  0
   -5.0202    4.0057    0.3932 C   0  0  0  0  0  0  0  0  0  0  0  0
   -3.7956   -0.3970    0.2541 N   0  0  0  0  0  0  0  0  0  0  0  0
   -5.1509   -0.2370   -0.0569 O   0  0  0  0  0  0  0  0  0  0  0  0
   -5.7889   -1.5171   -0.1371 C   0  0  0  0  0  0  0  0  0  0  0  0
   -5.7748   -2.2994    1.1849 C   0  0  0  0  0  0  0  0  0  0  0  0
   -6.2832   -1.5217    2.3218 N   0  0  0  0  0  0  0  0  0  0  0  0
   -6.0159    4.5554    1.4084 C   0  0  0  0  0  0  0  0  0  0  0  0
   -5.4066    4.6514    2.6945 O   0  0  0  0  0  0  0  0  0  0  0  0
   -6.3326    5.1275    3.6650 C   0  0  0  0  0  0  0  0  0  0  0  0
    0.3682    0.1115    0.0319 C   0  0  0  0  0  0  0  0  0  0  0  0
   -0.1862    1.0682    1.8519 C   0  0  0  0  0  0  0  0  0  0  0  0
    0.4686    1.7116    2.7123 O   0  0  0  0  0  0  0  0  0  0  0  0
   -1.5013    1.1964    2.3734 O   0  0  0  0  0  0  0  0  0  0  0  0
    0.1360   -0.8221   -0.9883 C   0  0  0  0  0  0  0  0  0  0  0  0
   -0.8774   -1.8406   -1.3411 C   0  0  0  0  0  0  0  0  0  0  0  0
   -2.0734   -1.8639   -1.1900 O   0  0  0  0  0  0  0  0  0  0  0  0
   -0.2627   -2.8723   -1.9431 O   0  0  0  0  0  0  0  0  0  0  0  0
    1.8888    2.8413    0.4024 H   0  0  0  0  0  0  0  0  0  0  0  0
   -0.8518    2.9282   -0.5011 H   0  0  0  0  0  0  0  0  0  0  0  0
   -1.6988   -1.6081    1.5443 H   0  0  0  0  0  0  0  0  0  0  0  0
    1.0867   -1.7239    2.3936 H   0  0  0  0  0  0  0  0  0  0  0  0
   -2.9159    2.7261   -0.6261 H   0  0  0  0  0  0  0  0  0  0  0  0
   -4.2679    1.8566   -1.3074 H   0  0  0  0  0  0  0  0  0  0  0  0
   -5.4593    1.9581    0.8786 H   0  0  0  0  0  0  0  0  0  0  0  0
   -4.0242    2.5756    1.6780 H   0  0  0  0  0  0  0  0  0  0  0  0
   -4.1361    4.6531    0.3581 H   0  0  0  0  0  0  0  0  0  0  0  0
   -5.4845    4.0182   -0.5995 H   0  0  0  0  0  0  0  0  0  0  0  0
   -6.8255   -1.3354   -0.4417 H   0  0  0  0  0  0  0  0  0  0  0  0
   -5.3166   -2.1079   -0.9311 H   0  0  0  0  0  0  0  0  0  0  0  0
   -6.3867   -3.2016    1.0754 H   0  0  0  0  0  0  0  0  0  0  0  0
   -4.7540   -2.6231    1.4150 H   0  0  0  0  0  0  0  0  0  0  0  0
   -6.0825   -2.0305    3.1812 H   0  0  0  0  0  0  0  0  0  0  0  0
   -5.7121   -0.6716    2.3662 H   0  0  0  0  0  0  0  0  0  0  0  0
   -6.3261    5.5564    1.0896 H   0  0  0  0  0  0  0  0  0  0  0  0
   -6.9011    3.9109    1.4609 H   0  0  0  0  0  0  0  0  0  0  0  0
   -6.7964    6.0613    3.3315 H   0  0  0  0  0  0  0  0  0  0  0  0
   -7.1035    4.3742    3.8555 H   0  0  0  0  0  0  0  0  0  0  0  0
   -5.7932    5.3203    4.5960 H   0  0  0  0  0  0  0  0  0  0  0  0
    1.3541    0.4010   -0.4065 H   0  0  0  0  0  0  0  0  0  0  0  0
   -1.3622    1.8365    3.1021 H   0  0  0  0  0  0  0  0  0  0  0  0
    0.9335   -0.8972   -1.7268 H   0  0  0  0  0  0  0  0  0  0  0  0
   -1.0128   -3.4908   -2.0798 H   0  0  0  0  0  0  0  0  0  0  0  0
  1  2  2  0  0  0  0
  1  7  1  0  0  0  0
  2  3  1  0  0  0  0
  2 31  1  0  0  0  0
  3  4  2  0  0  0  0
  3 32  1  0  0  0  0
  4  5  1  0  0  0  0
  4 11  1  0  0  0  0
  5  6  2  0  0  0  0
  5 33  1  0  0  0  0
  6  1  1  0  0  0  0
  6 34  1  0  0  0  0
  7  8  1  0  0  0  0
  7  9  1  0  0  0  0
  7 10  1  0  0  0  0
 11 12  1  0  0  0  0
 11 15  2  0  0  0  0
 12 13  1  0  0  0  0
 12 35  1  0  0  0  0
 12 36  1  0  0  0  0
 13 14  1  0  0  0  0
 13 37  1  0  0  0  0
 13 38  1  0  0  0  0
 14 20  1  0  0  0  0
 14 39  1  0  0  0  0
 14 40  1  0  0  0  0
 15 16  1  0  0  0  0
 16 17  1  0  0  0  0
 17 18  1  0  0  0  0
 17 41  1  0  0  0  0
 17 42  1  0  0  0  0
 18 19  1  0  0  0  0
 18 43  1  0  0  0  0
 18 44  1  0  0  0  0
 19 45  1  0  0  0  0
 19 46  1  0  0  0  0
 20 21  1  0  0  0  0
 20 47  1  0  0  0  0
 20 48  1  0  0  0  0
 21 22  1  0  0  0  0
 22 49  1  0  0  0  0
 22 50  1  0  0  0  0
 22 51  1  0  0  0  0
 23 24  1  0  0  0  0
 23 27  2  0  0  0  0
 23 52  1  0  0  0  0
 24 25  2  0  0  0  0
 24 26  1  0  0  0  0
 26 53  1  0  0  0  0
 27 28  1  0  0  0  0
 27 54  1  0  0  0  0
 28 29  2  0  0  0  0
 28 30  1  0  0  0  0
 30 55  1  0  0  0  0
M  END
>  <Mol_ID>
1105

>  <Formula>
C19H25F3N2O6

>  <MolWeight>
434.4068096

>  <Cat>
S1336

>  <Name>
Fluvoxamine (DU-23000) maleate

>  <Synonyms>
MK-264,DU-23000 maleate

>  <Target>
Serotonin Transporter

>  <Form>
Maleate

>  <CAS>
61718-82-9

>  <URL>
http://selleckchem.com/products/Fluvoxamine-maleate.html

$$$$
