Formamide
 OpenBabel08302521383D

  6  5  0  0  0  0  0  0  0  0999 V2000
    0.8456    0.0561   -0.0084 C   0  0  0  0  0  0  0  0  0  0  0  0
    0.2202    0.1732   -1.2092 N   0  0  0  0  0  0  0  0  0  0  0  0
    0.2467   -0.0472    1.0502 O   0  0  0  0  0  0  0  0  0  0  0  0
    1.9444    0.0641   -0.0904 H   0  0  0  0  0  0  0  0  0  0  0  0
   -0.7911    0.1744   -1.2208 H   0  0  0  0  0  0  0  0  0  0  0  0
    0.7231    0.2583   -2.0805 H   0  0  0  0  0  0  0  0  0  0  0  0
  1  2  1  0  0  0  0
  1  3  2  0  0  0  0
  1  4  1  0  0  0  0
  2  5  1  0  0  0  0
  2  6  1  0  0  0  0
M  END
>  <Mol_ID>
7606

>  <Formula>
CH3NO

>  <MolWeight>
45.04062

>  <Cat>
E2922

>  <Name>
Formamide

>  <Synonyms>
Methanamide; Formimidic acid

>  <Target>
Others

>  <Form>
free base

>  <CAS>
75-12-7

>  <URL>
https://www.selleckchem.com/products/formamide.html

$$$$
