Fosbretabulin (Combretastatin A4 Phosphate (CA4P)
 OpenBabel08302521363D

 46 47  0  0  0  0  0  0  0  0999 V2000
   -0.4787   -0.8202   -0.8958 C   0  0  0  0  0  0  0  0  0  0  0  0
    0.0641   -1.4959    0.1970 C   0  0  0  0  0  0  0  0  0  0  0  0
   -0.6793    0.5788   -0.7889 C   0  0  0  0  0  0  0  0  0  0  0  0
   -0.9809   -1.2430   -2.0840 O   0  0  0  0  0  0  0  0  0  0  0  0
    0.3821   -0.7574    1.3585 C   0  0  0  0  0  0  0  0  0  0  0  0
    0.1982   -2.8376    0.4074 O   0  0  0  0  0  0  0  0  0  0  0  0
   -0.4179    1.2892    0.3822 C   0  0  0  0  0  0  0  0  0  0  0  0
   -1.2199   -2.6727   -2.8034 P   0  0  0  0  0  0  0  0  0  0  0  0
    0.1440    0.6116    1.4614 C   0  0  0  0  0  0  0  0  0  0  0  0
    1.0468   -3.5302   -0.4964 C   0  0  0  0  0  0  0  0  0  0  0  0
   -0.8536    2.6870    0.5295 C   0  0  0  0  0  0  0  0  0  0  0  0
   -2.2234   -2.3265   -3.9045 O   0  0  0  0  0  0  0  0  0  0  0  0
    0.1522   -3.0607   -3.3485 O   0  5  0  0  0  0  0  0  0  0  0  0
   -1.8008   -3.6052   -1.7494 O   0  5  0  0  0  0  0  0  0  0  0  0
   -0.0857    3.7817    0.4257 C   0  0  0  0  0  0  0  0  0  0  0  0
    1.3311    3.7459    0.0755 C   0  0  0  0  0  0  0  0  0  0  0  0
    1.6953    3.8127   -1.2686 C   0  0  0  0  0  0  0  0  0  0  0  0
    2.3097    3.5945    1.0480 C   0  0  0  0  0  0  0  0  0  0  0  0
    3.0346    3.6718   -1.6535 C   0  0  0  0  0  0  0  0  0  0  0  0
    3.6576    3.4959    0.6890 C   0  0  0  0  0  0  0  0  0  0  0  0
    4.0370    3.4951   -0.6753 C   0  0  0  0  0  0  0  0  0  0  0  0
    3.3873    3.7675   -2.9833 O   0  0  0  0  0  0  0  0  0  0  0  0
    4.4817    3.3568    1.7819 O   0  0  0  0  0  0  0  0  0  0  0  0
    5.3710    3.2910   -0.9203 O   0  0  0  0  0  0  0  0  0  0  0  0
    2.4069    3.3123   -3.9208 C   0  0  0  0  0  0  0  0  0  0  0  0
    5.8000    3.8527    1.6560 C   0  0  0  0  0  0  0  0  0  0  0  0
    5.8050    2.9896   -2.2370 C   0  0  0  0  0  0  0  0  0  0  0  0
   -1.1238    1.0848   -1.6459 H   0  0  0  0  0  0  0  0  0  0  0  0
    0.7793   -1.2900    2.2191 H   0  0  0  0  0  0  0  0  0  0  0  0
    0.3449    1.1287    2.3915 H   0  0  0  0  0  0  0  0  0  0  0  0
    0.4737   -4.1026   -1.2193 H   0  0  0  0  0  0  0  0  0  0  0  0
    1.7951   -2.8894   -0.9744 H   0  0  0  0  0  0  0  0  0  0  0  0
    1.5869   -4.2802    0.0934 H   0  0  0  0  0  0  0  0  0  0  0  0
   -1.9145    2.7914    0.7237 H   0  0  0  0  0  0  0  0  0  0  0  0
   -0.5262    4.7692    0.5451 H   0  0  0  0  0  0  0  0  0  0  0  0
    0.9074    3.9543   -2.0010 H   0  0  0  0  0  0  0  0  0  0  0  0
    2.0310    3.5408    2.0982 H   0  0  0  0  0  0  0  0  0  0  0  0
    1.9147    2.3903   -3.5934 H   0  0  0  0  0  0  0  0  0  0  0  0
    1.6751    4.1042   -4.1107 H   0  0  0  0  0  0  0  0  0  0  0  0
    2.9194    3.1027   -4.8627 H   0  0  0  0  0  0  0  0  0  0  0  0
    6.4645    3.0843    1.2438 H   0  0  0  0  0  0  0  0  0  0  0  0
    5.8520    4.7826    1.0795 H   0  0  0  0  0  0  0  0  0  0  0  0
    6.1673    4.0804    2.6639 H   0  0  0  0  0  0  0  0  0  0  0  0
    5.2233    2.1855   -2.6971 H   0  0  0  0  0  0  0  0  0  0  0  0
    5.8181    3.8968   -2.8468 H   0  0  0  0  0  0  0  0  0  0  0  0
    6.8406    2.6360   -2.1683 H   0  0  0  0  0  0  0  0  0  0  0  0
  1  2  2  0  0  0  0
  1  3  1  0  0  0  0
  1  4  1  0  0  0  0
  2  5  1  0  0  0  0
  2  6  1  0  0  0  0
  3  7  2  0  0  0  0
  3 28  1  0  0  0  0
  4  8  1  0  0  0  0
  5  9  2  0  0  0  0
  5 29  1  0  0  0  0
  6 10  1  0  0  0  0
  7 11  1  0  0  0  0
  7  9  1  0  0  0  0
  8 12  2  0  0  0  0
  8 13  1  0  0  0  0
  8 14  1  0  0  0  0
  9 30  1  0  0  0  0
 10 31  1  0  0  0  0
 10 32  1  0  0  0  0
 10 33  1  0  0  0  0
 11 15  2  0  0  0  0
 11 34  1  0  0  0  0
 15 16  1  0  0  0  0
 15 35  1  0  0  0  0
 16 17  2  0  0  0  0
 16 18  1  0  0  0  0
 17 19  1  0  0  0  0
 17 36  1  0  0  0  0
 18 20  2  0  0  0  0
 18 37  1  0  0  0  0
 19 21  2  0  0  0  0
 19 22  1  0  0  0  0
 20 23  1  0  0  0  0
 20 21  1  0  0  0  0
 21 24  1  0  0  0  0
 22 25  1  0  0  0  0
 23 26  1  0  0  0  0
 24 27  1  0  0  0  0
 25 38  1  0  0  0  0
 25 39  1  0  0  0  0
 25 40  1  0  0  0  0
 26 41  1  0  0  0  0
 26 42  1  0  0  0  0
 26 43  1  0  0  0  0
 27 44  1  0  0  0  0
 27 45  1  0  0  0  0
 27 46  1  0  0  0  0
M  CHG  2  13  -1  14  -1
M  END
>  <Mol_ID>
7122

>  <Formula>
C18H19Na2O8P

>  <MolWeight>
440.291961

>  <Cat>
S7204

>  <Name>
Fosbretabulin (Combretastatin A4 Phosphate (CA4P)

>  <Synonyms>
CA 4DP

>  <Target>
Apoptosis related,Microtubule Associated

>  <Form>
Disodium salt

>  <CAS>
168555-66-6

>  <URL>
http://selleckchem.com/products/fosbretabulin-disodium-combretastatin-a-4-phosphate-disodium-ca

$$$$
