FR 180204.cdx
 OpenBabel08302519583D

 38 42  0  0  0  0  0  0  0  0999 V2000
   -2.1402   -0.6648   -0.0265 C   0  0  0  0  0  0  0  0  0  0  0  0
   -2.0728    0.7798    0.0249 C   0  0  0  0  0  0  0  0  0  0  0  0
   -0.8632    1.3685    0.0572 C   0  0  0  0  0  0  0  0  0  0  0  0
    0.3006    0.5951    0.0532 N   0  0  0  0  0  0  0  0  0  0  0  0
    0.2624   -0.7997    0.0147 C   0  0  0  0  0  0  0  0  0  0  0  0
   -1.0271   -1.4201   -0.0450 C   0  0  0  0  0  0  0  0  0  0  0  0
    1.5714    1.0548    0.0827 N   0  0  0  0  0  0  0  0  0  0  0  0
    2.3616   -0.0317    0.0548 C   0  0  0  0  0  0  0  0  0  0  0  0
    1.5788   -1.2318    0.0245 C   0  0  0  0  0  0  0  0  0  0  0  0
    1.9873   -2.6268   -0.0533 C   0  0  0  0  0  0  0  0  0  0  0  0
    3.8266    0.1304    0.0515 C   0  0  0  0  0  0  0  0  0  0  0  0
    4.6729   -0.7990    0.6728 C   0  0  0  0  0  0  0  0  0  0  0  0
    6.0629   -0.6762    0.5856 C   0  0  0  0  0  0  0  0  0  0  0  0
    6.6275    0.4017   -0.0902 C   0  0  0  0  0  0  0  0  0  0  0  0
    5.8028    1.3623   -0.6703 C   0  0  0  0  0  0  0  0  0  0  0  0
    4.4123    1.2274   -0.6003 C   0  0  0  0  0  0  0  0  0  0  0  0
    1.3192   -3.6151    0.6636 C   0  0  0  0  0  0  0  0  0  0  0  0
    1.7871   -4.9166    0.4807 C   0  0  0  0  0  0  0  0  0  0  0  0
    2.8954   -5.0867   -0.3223 C   0  0  0  0  0  0  0  0  0  0  0  0
    3.5555   -4.1216   -0.9777 N   0  0  0  0  0  0  0  0  0  0  0  0
    3.0585   -2.8897   -0.8507 N   0  0  0  0  0  0  0  0  0  0  0  0
    1.4504   -6.2273    0.8924 C   0  0  0  0  0  0  0  0  0  0  0  0
    2.2897   -7.1437    0.4109 N   0  0  0  0  0  0  0  0  0  0  0  0
    3.1741   -6.4179   -0.3062 N   0  0  0  0  0  0  0  0  0  0  0  0
    0.3952   -6.5269    1.6606 N   0  0  0  0  0  0  0  0  0  0  0  0
   -3.1235   -1.1278   -0.0619 H   0  0  0  0  0  0  0  0  0  0  0  0
   -2.9919    1.3552    0.0177 H   0  0  0  0  0  0  0  0  0  0  0  0
   -0.7228    2.4407    0.0826 H   0  0  0  0  0  0  0  0  0  0  0  0
   -1.1160   -2.4985   -0.1081 H   0  0  0  0  0  0  0  0  0  0  0  0
    4.2692   -1.6466    1.2184 H   0  0  0  0  0  0  0  0  0  0  0  0
    6.7005   -1.4317    1.0373 H   0  0  0  0  0  0  0  0  0  0  0  0
    7.7079    0.4919   -0.1639 H   0  0  0  0  0  0  0  0  0  0  0  0
    6.2392    2.2116   -1.1892 H   0  0  0  0  0  0  0  0  0  0  0  0
    3.7842    1.9803   -1.0725 H   0  0  0  0  0  0  0  0  0  0  0  0
    0.4872   -3.4046    1.3201 H   0  0  0  0  0  0  0  0  0  0  0  0
    3.9406   -6.8894   -0.7700 H   0  0  0  0  0  0  0  0  0  0  0  0
    0.1316   -7.5042    1.7275 H   0  0  0  0  0  0  0  0  0  0  0  0
   -0.3679   -5.8780    1.8030 H   0  0  0  0  0  0  0  0  0  0  0  0
  1  2  1  0  0  0  0
  1 26  1  0  0  0  0
  2  3  2  0  0  0  0
  2 27  1  0  0  0  0
  3  4  1  0  0  0  0
  3 28  1  0  0  0  0
  4  5  1  0  0  0  0
  4  7  1  0  0  0  0
  6  1  2  0  0  0  0
  6  5  1  0  0  0  0
  6 29  1  0  0  0  0
  7  8  2  0  0  0  0
  8  9  1  0  0  0  0
  8 11  1  0  0  0  0
  9  5  2  0  0  0  0
  9 10  1  0  0  0  0
 10 17  2  0  0  0  0
 11 12  2  0  0  0  0
 12 13  1  0  0  0  0
 12 30  1  0  0  0  0
 13 14  2  0  0  0  0
 13 31  1  0  0  0  0
 14 15  1  0  0  0  0
 14 32  1  0  0  0  0
 15 16  2  0  0  0  0
 15 33  1  0  0  0  0
 16 11  1  0  0  0  0
 16 34  1  0  0  0  0
 17 18  1  0  0  0  0
 17 35  1  0  0  0  0
 18 19  2  0  0  0  0
 18 22  1  0  0  0  0
 19 20  1  0  0  0  0
 20 21  2  0  0  0  0
 21 10  1  0  0  0  0
 22 23  2  0  0  0  0
 22 25  1  0  0  0  0
 23 24  1  0  0  0  0
 24 19  1  0  0  0  0
 24 36  1  0  0  0  0
 25 37  1  0  0  0  0
 25 38  1  0  0  0  0
M  END
>  <Mol_ID>
2441

>  <Formula>
C18H13N7

>  <MolWeight>
327.34272

>  <Cat>
S7524

>  <Name>
FR 180204

>  <Synonyms>
N/A

>  <Target>
ERK

>  <Form>
free base

>  <CAS>
865362-74-9

>  <URL>
http://selleckchem.com/products/fr180204.html

$$$$
