Fructose
 OpenBabel08302520323D

 24 23  0  0  0  0  0  0  0  0999 V2000
    1.4611    5.9836    7.2670 O   0  0  0  0  0  0  0  0  0  0  0  0
    2.2616    5.6833    6.1358 C   0  0  0  0  0  0  0  0  0  0  0  0
    1.9996    4.6952    3.7230 C   0  0  1  0  0  0  0  0  0  0  0  0
    1.1550    4.8200    2.5638 O   0  0  0  0  0  0  0  0  0  0  0  0
    3.4204    5.1250    3.3347 C   0  0  2  0  0  0  0  0  0  0  0  0
    3.3627    6.4260    2.7374 O   0  0  0  0  0  0  0  0  0  0  0  0
    4.1147    4.1515    2.3630 C   0  0  2  0  0  0  0  0  0  0  0  0
    4.1269    2.8335    2.9273 O   0  0  0  0  0  0  0  0  0  0  0  0
    5.5668    4.5815    2.0864 C   0  0  0  0  0  0  0  0  0  0  0  0
    6.3372    4.4163    3.2828 O   0  0  0  0  0  0  0  0  0  0  0  0
    1.4322    5.5664    4.8568 C   0  0  0  0  0  0  0  0  0  0  0  0
    0.3259    6.1088    4.7700 O   0  0  0  0  0  0  0  0  0  0  0  0
    0.8040    6.6476    6.9760 H   0  0  0  0  0  0  0  0  0  0  0  0
    3.0027    6.4797    6.0127 H   0  0  0  0  0  0  0  0  0  0  0  0
    2.7677    4.7339    6.3301 H   0  0  0  0  0  0  0  0  0  0  0  0
    1.9611    3.6576    4.0679 H   0  0  0  0  0  0  0  0  0  0  0  0
    0.2375    4.8582    2.9062 H   0  0  0  0  0  0  0  0  0  0  0  0
    4.0304    5.2057    4.2423 H   0  0  0  0  0  0  0  0  0  0  0  0
    2.6522    6.3756    2.0658 H   0  0  0  0  0  0  0  0  0  0  0  0
    3.5727    4.1180    1.4096 H   0  0  0  0  0  0  0  0  0  0  0  0
    5.0362    2.6898    3.2633 H   0  0  0  0  0  0  0  0  0  0  0  0
    6.0149    3.9271    1.3336 H   0  0  0  0  0  0  0  0  0  0  0  0
    5.6483    5.6167    1.7390 H   0  0  0  0  0  0  0  0  0  0  0  0
    6.2225    5.2241    3.8101 H   0  0  0  0  0  0  0  0  0  0  0  0
  1  2  1  0  0  0  0
  1 13  1  0  0  0  0
  2 11  1  0  0  0  0
  2 14  1  0  0  0  0
  2 15  1  0  0  0  0
  3  4  1  0  0  0  0
  3 11  1  0  0  0  0
  3 16  1  1  0  0  0
  4 17  1  0  0  0  0
  5 18  1  1  0  0  0
  5  6  1  0  0  0  0
  5  3  1  0  0  0  0
  6 19  1  0  0  0  0
  7  9  1  0  0  0  0
  7 20  1  6  0  0  0
  7  8  1  0  0  0  0
  7  5  1  0  0  0  0
  8 21  1  0  0  0  0
  9 10  1  0  0  0  0
  9 22  1  0  0  0  0
  9 23  1  0  0  0  0
 10 24  1  0  0  0  0
 11 12  2  0  0  0  0
M  END
>  <Mol_ID>
3340

>  <Formula>
C6H12O6

>  <MolWeight>
180.15588

>  <Cat>
S5176

>  <Name>
Fructose

>  <Synonyms>
D-(-)-Fructose, Fruit sugar, levulose, fructosteril, D-fructofuranose, D-arabino-hexulose

>  <Target>
Others

>  <Form>
Free Base

>  <CAS>
57-48-7

>  <URL>
http://www.selleckchem.com/products/fructose.html

$$$$
