Furosemide.cdx
 OpenBabel08302520343D

 32 33  0  0  0  0  0  0  0  0999 V2000
    1.4093   -0.2191    0.0436 C   0  0  0  0  0  0  0  0  0  0  0  0
    0.5449   -1.3273    0.0699 C   0  0  0  0  0  0  0  0  0  0  0  0
   -0.8329   -1.1309    0.0506 C   0  0  0  0  0  0  0  0  0  0  0  0
   -1.3482    0.1708    0.0369 C   0  0  0  0  0  0  0  0  0  0  0  0
   -0.4815    1.2696   -0.0095 C   0  0  0  0  0  0  0  0  0  0  0  0
    0.9139    1.1065   -0.0913 C   0  0  0  0  0  0  0  0  0  0  0  0
    1.7950    2.2089   -0.1537 N   0  0  0  0  0  0  0  0  0  0  0  0
    1.3560    3.4393   -0.8513 C   0  0  0  0  0  0  0  0  0  0  0  0
    2.4053    4.5063   -0.8685 C   0  0  0  0  0  0  0  0  0  0  0  0
   -1.9358   -2.5093    0.0133 S   0  0  0  0  0  0  0  0  0  0  0  0
    2.8615   -0.5391    0.1286 C   0  0  0  0  0  0  0  0  0  0  0  0
    3.5839    0.3910    0.7965 O   0  0  0  0  0  0  0  0  0  0  0  0
    3.3410   -1.5594   -0.3186 O   0  0  0  0  0  0  0  0  0  0  0  0
   -1.4883   -3.2828   -1.4098 N   0  0  0  0  0  0  0  0  0  0  0  0
   -1.6098   -3.3883    1.1094 O   0  0  0  0  0  0  0  0  0  0  0  0
   -3.2744   -2.0313   -0.2238 O   0  0  0  0  0  0  0  0  0  0  0  0
    2.7087    5.5457   -0.0098 C   0  0  0  0  0  0  0  0  0  0  0  0
    3.8277    6.2121   -0.5642 C   0  0  0  0  0  0  0  0  0  0  0  0
    4.1355    5.5444   -1.7250 C   0  0  0  0  0  0  0  0  0  0  0  0
    3.2787    4.5061   -1.9190 O   0  0  0  0  0  0  0  0  0  0  0  0
    0.9462   -2.3384    0.1152 H   0  0  0  0  0  0  0  0  0  0  0  0
   -2.4270    0.3354    0.0644 H   0  0  0  0  0  0  0  0  0  0  0  0
   -0.9359    2.2576    0.0167 H   0  0  0  0  0  0  0  0  0  0  0  0
    2.6823    1.9338   -0.5940 H   0  0  0  0  0  0  0  0  0  0  0  0
    1.0900    3.1926   -1.8876 H   0  0  0  0  0  0  0  0  0  0  0  0
    0.4659    3.8628   -0.3729 H   0  0  0  0  0  0  0  0  0  0  0  0
    3.0359    1.1076    1.1846 H   0  0  0  0  0  0  0  0  0  0  0  0
   -1.7599   -4.2692   -1.3544 H   0  0  0  0  0  0  0  0  0  0  0  0
   -1.8841   -2.8166   -2.2237 H   0  0  0  0  0  0  0  0  0  0  0  0
    2.1885    5.7867    0.9050 H   0  0  0  0  0  0  0  0  0  0  0  0
    4.3501    7.0728   -0.1653 H   0  0  0  0  0  0  0  0  0  0  0  0
    4.8971    5.6756   -2.4832 H   0  0  0  0  0  0  0  0  0  0  0  0
  1  2  2  0  0  0  0
  1 11  1  0  0  0  0
  2  3  1  0  0  0  0
  2 21  1  0  0  0  0
  3  4  2  0  0  0  0
  3 10  1  0  0  0  0
  4  5  1  0  0  0  0
  4 22  1  0  0  0  0
  5  6  2  0  0  0  0
  5 23  1  0  0  0  0
  6  1  1  0  0  0  0
  6  7  1  0  0  0  0
  7  8  1  0  0  0  0
  7 24  1  0  0  0  0
  8  9  1  0  0  0  0
  8 25  1  0  0  0  0
  8 26  1  0  0  0  0
  9 17  2  0  0  0  0
 10 14  1  0  0  0  0
 10 15  2  0  0  0  0
 10 16  2  0  0  0  0
 11 12  1  0  0  0  0
 11 13  2  0  0  0  0
 12 27  1  0  0  0  0
 14 28  1  0  0  0  0
 14 29  1  0  0  0  0
 17 18  1  0  0  0  0
 17 30  1  0  0  0  0
 18 19  2  0  0  0  0
 18 31  1  0  0  0  0
 19 20  1  0  0  0  0
 19 32  1  0  0  0  0
 20  9  1  0  0  0  0
M  END
>  <Mol_ID>
342

>  <Formula>
C12H11ClN2O5S

>  <MolWeight>
330.74414

>  <Cat>
S1603

>  <Name>
Furosemide (NSC 269420)

>  <Synonyms>
NSC 269420

>  <Target>
NKCC

>  <Form>
free base

>  <CAS>
54-31-9

>  <URL>
http://selleckchem.com/products/Furosemide(Lasix).html

$$$$
