G140
 OpenBabel08302521323D

 41 44  0  0  0  0  0  0  0  0999 V2000
    3.0406   -1.1612   -0.1018 C   0  0  0  0  0  0  0  0  0  0  0  0
    3.4198    0.1793   -0.0894 C   0  0  0  0  0  0  0  0  0  0  0  0
    2.4619    1.1887   -0.0403 C   0  0  0  0  0  0  0  0  0  0  0  0
    1.1130    0.8154    0.0017 C   0  0  0  0  0  0  0  0  0  0  0  0
    0.6868   -0.5266    0.0036 C   0  0  0  0  0  0  0  0  0  0  0  0
    1.6840   -1.5441   -0.0573 C   0  0  0  0  0  0  0  0  0  0  0  0
    1.3333   -2.9676   -0.0538 C   0  0  0  0  0  0  0  0  0  0  0  0
   -0.0052    1.6249    0.0428 N   0  0  0  0  0  0  0  0  0  0  0  0
   -1.1256    0.8521    0.0799 C   0  0  0  0  0  0  0  0  0  0  0  0
   -0.7482   -0.4788    0.0891 C   0  0  0  0  0  0  0  0  0  0  0  0
    2.0711   -4.0433    0.5215 C   0  0  0  0  0  0  0  0  0  0  0  0
    1.3199   -5.1750    0.3062 C   0  0  0  0  0  0  0  0  0  0  0  0
    0.2167   -4.7564   -0.3688 N   0  0  0  0  0  0  0  0  0  0  0  0
    0.2326   -3.4475   -0.6521 N   0  0  0  0  0  0  0  0  0  0  0  0
   -2.5312    1.3340    0.1047 C   0  0  0  0  0  0  0  0  0  0  0  0
   -3.4402    0.1791   -0.3662 C   0  0  0  0  0  0  0  0  0  0  0  0
   -3.1127   -1.0709    0.3417 N   0  0  0  0  0  0  0  0  0  0  0  0
   -1.7466   -1.5934    0.1445 C   0  0  0  0  0  0  0  0  0  0  0  0
   -0.9230   -5.5572   -0.7460 C   0  0  0  0  0  0  0  0  0  0  0  0
   -4.1316   -1.8257    0.8995 C   0  0  0  0  0  0  0  0  0  0  0  0
   -3.7435   -3.1395    1.5985 C   0  0  0  0  0  0  0  0  0  0  0  0
   -4.8637   -3.8316    2.1347 O   0  0  0  0  0  0  0  0  0  0  0  0
   -5.3113   -1.4621    0.9016 O   0  0  0  0  0  0  0  0  0  0  0  0
    3.8200   -1.9169   -0.1584 H   0  0  0  0  0  0  0  0  0  0  0  0
    4.4747    0.4409   -0.1275 H   0  0  0  0  0  0  0  0  0  0  0  0
    2.7595    2.2334   -0.0369 H   0  0  0  0  0  0  0  0  0  0  0  0
    0.0170    2.6346    0.0372 H   0  0  0  0  0  0  0  0  0  0  0  0
    3.0138   -3.9899    1.0459 H   0  0  0  0  0  0  0  0  0  0  0  0
    1.4681   -6.2084    0.5841 H   0  0  0  0  0  0  0  0  0  0  0  0
   -2.6695    2.2110   -0.5349 H   0  0  0  0  0  0  0  0  0  0  0  0
   -2.7957    1.6082    1.1327 H   0  0  0  0  0  0  0  0  0  0  0  0
   -3.2909   -0.0138   -1.4371 H   0  0  0  0  0  0  0  0  0  0  0  0
   -4.4901    0.4529   -0.2287 H   0  0  0  0  0  0  0  0  0  0  0  0
   -1.4903   -2.2753    0.9579 H   0  0  0  0  0  0  0  0  0  0  0  0
   -1.7797   -2.1279   -0.8084 H   0  0  0  0  0  0  0  0  0  0  0  0
   -0.5910   -6.3187   -1.4540 H   0  0  0  0  0  0  0  0  0  0  0  0
   -1.3341   -6.0179    0.1562 H   0  0  0  0  0  0  0  0  0  0  0  0
   -1.6819   -4.9190   -1.2082 H   0  0  0  0  0  0  0  0  0  0  0  0
   -3.2520   -3.8090    0.8878 H   0  0  0  0  0  0  0  0  0  0  0  0
   -3.0693   -2.9135    2.4292 H   0  0  0  0  0  0  0  0  0  0  0  0
   -5.5084   -3.1374    2.3773 H   0  0  0  0  0  0  0  0  0  0  0  0
  1  2  2  0  0  0  0
  1 24  1  0  0  0  0
  2  3  1  0  0  0  0
  2 25  1  0  0  0  0
  3  4  2  0  0  0  0
  3 26  1  0  0  0  0
  4  5  1  0  0  0  0
  4  8  1  0  0  0  0
  5  6  2  0  0  0  0
  6  1  1  0  0  0  0
  6  7  1  0  0  0  0
  7 11  1  0  0  0  0
  8  9  1  0  0  0  0
  8 27  1  0  0  0  0
  9 10  2  0  0  0  0
  9 15  1  0  0  0  0
 10  5  1  0  0  0  0
 11 12  2  0  0  0  0
 11 28  1  0  0  0  0
 12 13  1  0  0  0  0
 12 29  1  0  0  0  0
 13 14  1  0  0  0  0
 13 19  1  0  0  0  0
 14  7  2  0  0  0  0
 15 16  1  0  0  0  0
 15 30  1  0  0  0  0
 15 31  1  0  0  0  0
 16 17  1  0  0  0  0
 16 32  1  0  0  0  0
 16 33  1  0  0  0  0
 17 18  1  0  0  0  0
 17 20  1  0  0  0  0
 18 10  1  0  0  0  0
 18 34  1  0  0  0  0
 18 35  1  0  0  0  0
 19 36  1  0  0  0  0
 19 37  1  0  0  0  0
 19 38  1  0  0  0  0
 20 21  1  0  0  0  0
 20 23  2  0  0  0  0
 21 22  1  0  0  0  0
 21 39  1  0  0  0  0
 21 40  1  0  0  0  0
 22 41  1  0  0  0  0
M  END
>  <Mol_ID>
6109

>  <Formula>
C17H16Cl2N4O2

>  <MolWeight>
379.24054

>  <Cat>
S9945

>  <Name>
G140

>  <Target>
cGAS

>  <Form>
free base

>  <CAS>
2369751-07-3

>  <URL>
http://www.selleckchem.com/products/g140.html

$$$$
