GABAA receptor agent 1
 OpenBabel08302521353D

 27 29  0  0  0  0  0  0  0  0999 V2000
    2.2024   -0.6980   -0.0055 C   0  0  0  0  0  0  0  0  0  0  0  0
    2.1777    0.7051   -0.0264 C   0  0  0  0  0  0  0  0  0  0  0  0
    0.9545    1.3914   -0.0490 C   0  0  0  0  0  0  0  0  0  0  0  0
   -0.2360    0.6508   -0.0454 C   0  0  0  0  0  0  0  0  0  0  0  0
   -0.1770   -0.7370   -0.0274 C   0  0  0  0  0  0  0  0  0  0  0  0
    1.0188   -1.4604   -0.0044 C   0  0  0  0  0  0  0  0  0  0  0  0
   -1.5355    1.0846   -0.0420 N   0  0  0  0  0  0  0  0  0  0  0  0
   -2.2865   -0.0014   -0.0308 C   0  0  0  0  0  0  0  0  0  0  0  0
   -1.4907   -1.1254   -0.0263 N   0  0  0  0  0  0  0  0  0  0  0  0
   -3.7462   -0.0496    0.0369 C   0  0  0  0  0  0  0  0  0  0  0  0
   -4.4730   -1.1235   -0.4970 C   0  0  0  0  0  0  0  0  0  0  0  0
   -5.8643   -1.1657   -0.3817 C   0  0  0  0  0  0  0  0  0  0  0  0
   -6.5426   -0.1346    0.2648 C   0  0  0  0  0  0  0  0  0  0  0  0
   -5.8335    0.9458    0.7856 C   0  0  0  0  0  0  0  0  0  0  0  0
   -4.4431    0.9908    0.6659 C   0  0  0  0  0  0  0  0  0  0  0  0
    3.4983   -1.3932    0.0176 N   0  3  0  0  0  0  0  0  0  0  0  0
    4.5257   -0.7011    0.0138 O   0  5  0  0  0  0  0  0  0  0  0  0
    3.4861   -2.6335    0.0395 O   0  0  0  0  0  0  0  0  0  0  0  0
    3.0978    1.2865   -0.0227 H   0  0  0  0  0  0  0  0  0  0  0  0
    0.9171    2.4756   -0.0622 H   0  0  0  0  0  0  0  0  0  0  0  0
    1.0241   -2.5459    0.0165 H   0  0  0  0  0  0  0  0  0  0  0  0
   -1.8288   -2.0750    0.0218 H   0  0  0  0  0  0  0  0  0  0  0  0
   -3.9731   -1.9322   -1.0228 H   0  0  0  0  0  0  0  0  0  0  0  0
   -6.4185   -2.0028   -0.7985 H   0  0  0  0  0  0  0  0  0  0  0  0
   -7.6248   -0.1701    0.3585 H   0  0  0  0  0  0  0  0  0  0  0  0
   -6.3602    1.7536    1.2872 H   0  0  0  0  0  0  0  0  0  0  0  0
   -3.8975    1.8381    1.0792 H   0  0  0  0  0  0  0  0  0  0  0  0
  1  2  2  0  0  0  0
  1 16  1  0  0  0  0
  2  3  1  0  0  0  0
  2 19  1  0  0  0  0
  3  4  2  0  0  0  0
  3 20  1  0  0  0  0
  4  5  1  0  0  0  0
  4  7  1  0  0  0  0
  5  6  2  0  0  0  0
  6  1  1  0  0  0  0
  6 21  1  0  0  0  0
  7  8  2  0  0  0  0
  8  9  1  0  0  0  0
  8 10  1  0  0  0  0
  9  5  1  0  0  0  0
  9 22  1  0  0  0  0
 10 11  2  0  0  0  0
 11 12  1  0  0  0  0
 11 23  1  0  0  0  0
 12 13  2  0  0  0  0
 12 24  1  0  0  0  0
 13 14  1  0  0  0  0
 13 25  1  0  0  0  0
 14 15  2  0  0  0  0
 14 26  1  0  0  0  0
 15 10  1  0  0  0  0
 15 27  1  0  0  0  0
 16 17  1  0  0  0  0
 16 18  2  0  0  0  0
M  CHG  2  16   1  17  -1
M  END
>  <Mol_ID>
6654

>  <Formula>
C13H8ClN3O2

>  <MolWeight>
273.67452

>  <Cat>
S1989

>  <Name>
GABAA receptor agent 1

>  <Synonyms>
N/A

>  <Target>
GABA Receptor

>  <Form>
Free base

>  <CAS>
1571-87-5

>  <URL>
http://www.selleckchem.com/products/gabaa-receptor-agent-1.html

$$$$
