Ganciclovir.cdx
 OpenBabel08302521443D

 31 32  0  0  0  0  0  0  0  0999 V2000
   -1.2368    0.5981   -2.7388 N   0  0  0  0  0  0  0  0  0  0  0  0
   -0.8616   -0.7047   -3.0080 C   0  0  0  0  0  0  0  0  0  0  0  0
   -0.0044   -1.3768   -2.2891 N   0  0  0  0  0  0  0  0  0  0  0  0
    0.5224   -0.6522   -1.2714 C   0  0  0  0  0  0  0  0  0  0  0  0
    0.2642    0.6560   -0.9302 C   0  0  0  0  0  0  0  0  0  0  0  0
   -0.7201    1.3729   -1.7101 C   0  0  0  0  0  0  0  0  0  0  0  0
    1.4039   -1.0888   -0.3279 N   0  0  0  0  0  0  0  0  0  0  0  0
    1.6991   -0.0232    0.4845 C   0  0  0  0  0  0  0  0  0  0  0  0
    1.0109    1.0517    0.1503 N   0  0  0  0  0  0  0  0  0  0  0  0
   -1.4422   -1.2875   -4.0863 N   0  0  0  0  0  0  0  0  0  0  0  0
    1.8425   -2.4511   -0.1292 C   0  0  0  0  0  0  0  0  0  0  0  0
   -1.0946    2.5239   -1.5151 O   0  0  0  0  0  0  0  0  0  0  0  0
    1.5063   -2.8918    1.1894 O   0  0  0  0  0  0  0  0  0  0  0  0
    0.0904   -2.9457    1.4872 C   0  0  0  0  0  0  0  0  0  0  0  0
   -0.6978   -3.9090    0.5897 C   0  0  0  0  0  0  0  0  0  0  0  0
   -0.0250   -3.3497    2.9628 C   0  0  0  0  0  0  0  0  0  0  0  0
   -0.1201   -5.2094    0.6088 O   0  0  0  0  0  0  0  0  0  0  0  0
    0.5903   -2.3491    3.7795 O   0  0  0  0  0  0  0  0  0  0  0  0
   -1.9001    1.0691   -3.3301 H   0  0  0  0  0  0  0  0  0  0  0  0
    2.3859   -0.0993    1.3183 H   0  0  0  0  0  0  0  0  0  0  0  0
   -1.2881   -2.2864   -4.1417 H   0  0  0  0  0  0  0  0  0  0  0  0
   -2.3710   -0.9943   -4.3508 H   0  0  0  0  0  0  0  0  0  0  0  0
    1.4230   -3.1109   -0.8920 H   0  0  0  0  0  0  0  0  0  0  0  0
    2.9326   -2.4612   -0.2318 H   0  0  0  0  0  0  0  0  0  0  0  0
   -0.3256   -1.9369    1.3909 H   0  0  0  0  0  0  0  0  0  0  0  0
   -1.7378   -3.9861    0.9262 H   0  0  0  0  0  0  0  0  0  0  0  0
   -0.7133   -3.5548   -0.4450 H   0  0  0  0  0  0  0  0  0  0  0  0
   -1.0717   -3.4323    3.2701 H   0  0  0  0  0  0  0  0  0  0  0  0
    0.4850   -4.2962    3.1666 H   0  0  0  0  0  0  0  0  0  0  0  0
   -0.1720   -5.5663   -0.2946 H   0  0  0  0  0  0  0  0  0  0  0  0
    1.4792   -2.2156    3.4002 H   0  0  0  0  0  0  0  0  0  0  0  0
  1  2  1  0  0  0  0
  1 19  1  0  0  0  0
  2  3  2  0  0  0  0
  2 10  1  0  0  0  0
  3  4  1  0  0  0  0
  4  5  2  0  0  0  0
  4  7  1  0  0  0  0
  5  6  1  0  0  0  0
  6  1  1  0  0  0  0
  6 12  2  0  0  0  0
  7  8  1  0  0  0  0
  7 11  1  0  0  0  0
  8  9  2  0  0  0  0
  8 20  1  0  0  0  0
  9  5  1  0  0  0  0
 10 21  1  0  0  0  0
 10 22  1  0  0  0  0
 11 13  1  0  0  0  0
 11 23  1  0  0  0  0
 11 24  1  0  0  0  0
 13 14  1  0  0  0  0
 14 15  1  0  0  0  0
 14 16  1  0  0  0  0
 14 25  1  0  0  0  0
 15 17  1  0  0  0  0
 15 26  1  0  0  0  0
 15 27  1  0  0  0  0
 16 18  1  0  0  0  0
 16 28  1  0  0  0  0
 16 29  1  0  0  0  0
 17 30  1  0  0  0  0
 18 31  1  0  0  0  0
M  END
>  <Mol_ID>
924

>  <Formula>
C9H13N5O4

>  <MolWeight>
255.23062

>  <Cat>
S1878

>  <Name>
Ganciclovir (BW 759)

>  <Synonyms>
RS-21592, BW-759, 2'-Nor-2'-deoxyguanosine

>  <Target>
CMV

>  <Form>
free base

>  <CAS>
82410-32-0

>  <URL>
http://selleckchem.com/products/ganciclovir.html

$$$$
