GANTANOL (sulfamethoxazole).cdx
 OpenBabel08302519503D

 28 29  0  0  0  0  0  0  0  0999 V2000
    0.1997   -1.0119    0.5610 C   0  0  0  0  0  0  0  0  0  0  0  0
    0.8925   -0.0664   -0.2012 C   0  0  0  0  0  0  0  0  0  0  0  0
    0.1698    0.9601   -0.8189 C   0  0  0  0  0  0  0  0  0  0  0  0
   -1.2284    0.9820   -0.7726 C   0  0  0  0  0  0  0  0  0  0  0  0
   -1.9107   -0.0188   -0.0749 C   0  0  0  0  0  0  0  0  0  0  0  0
   -1.1968   -0.9978    0.6227 C   0  0  0  0  0  0  0  0  0  0  0  0
    2.2904   -0.0095   -0.1457 N   0  0  0  0  0  0  0  0  0  0  0  0
   -3.6901    0.0121    0.0294 S   0  0  0  0  0  0  0  0  0  0  0  0
   -4.2379   -0.9439   -1.2352 N   0  0  0  0  0  0  0  0  0  0  0  0
   -3.7554   -2.2320   -1.3861 C   0  0  0  0  0  0  0  0  0  0  0  0
   -4.4207   -3.3803   -0.9271 C   0  0  0  0  0  0  0  0  0  0  0  0
   -3.6085   -4.4190   -1.3067 C   0  0  0  0  0  0  0  0  0  0  0  0
   -2.5388   -3.9206   -1.9884 O   0  0  0  0  0  0  0  0  0  0  0  0
   -2.6553   -2.5373   -2.0772 N   0  0  0  0  0  0  0  0  0  0  0  0
   -4.0747   -0.6046    1.2750 O   0  0  0  0  0  0  0  0  0  0  0  0
   -4.1144    1.3657   -0.2912 O   0  0  0  0  0  0  0  0  0  0  0  0
   -3.6727   -5.8795   -1.1307 C   0  0  0  0  0  0  0  0  0  0  0  0
    0.7438   -1.7736    1.1142 H   0  0  0  0  0  0  0  0  0  0  0  0
    0.6935    1.7532   -1.3458 H   0  0  0  0  0  0  0  0  0  0  0  0
   -1.7671    1.7891   -1.2654 H   0  0  0  0  0  0  0  0  0  0  0  0
   -1.7147   -1.7459    1.2162 H   0  0  0  0  0  0  0  0  0  0  0  0
    2.7135    0.4731   -0.9321 H   0  0  0  0  0  0  0  0  0  0  0  0
    2.7293   -0.9077    0.0323 H   0  0  0  0  0  0  0  0  0  0  0  0
   -4.3940   -0.4034   -2.0790 H   0  0  0  0  0  0  0  0  0  0  0  0
   -5.3619   -3.4355   -0.4029 H   0  0  0  0  0  0  0  0  0  0  0  0
   -3.5221   -6.3963   -2.0822 H   0  0  0  0  0  0  0  0  0  0  0  0
   -2.9022   -6.2112   -0.4282 H   0  0  0  0  0  0  0  0  0  0  0  0
   -4.6459   -6.1803   -0.7329 H   0  0  0  0  0  0  0  0  0  0  0  0
  1  2  2  0  0  0  0
  1 18  1  0  0  0  0
  2  3  1  0  0  0  0
  2  7  1  0  0  0  0
  3  4  2  0  0  0  0
  3 19  1  0  0  0  0
  4  5  1  0  0  0  0
  4 20  1  0  0  0  0
  5  6  2  0  0  0  0
  5  8  1  0  0  0  0
  6  1  1  0  0  0  0
  6 21  1  0  0  0  0
  7 22  1  0  0  0  0
  7 23  1  0  0  0  0
  8  9  1  0  0  0  0
  8 15  2  0  0  0  0
  8 16  2  0  0  0  0
  9 10  1  0  0  0  0
  9 24  1  0  0  0  0
 10 11  1  0  0  0  0
 11 12  2  0  0  0  0
 11 25  1  0  0  0  0
 12 13  1  0  0  0  0
 12 17  1  0  0  0  0
 13 14  1  0  0  0  0
 14 10  2  0  0  0  0
 17 26  1  0  0  0  0
 17 27  1  0  0  0  0
 17 28  1  0  0  0  0
M  END
>  <Mol_ID>
184

>  <Formula>
C10H11N3O3S

>  <MolWeight>
253.27764

>  <Cat>
S1915

>  <Name>
Sulfamethoxazole

>  <Synonyms>
Ro 4-2130

>  <Target>
Antibiotics,Bacterial

>  <Form>
free base

>  <CAS>
723-46-6

>  <URL>
http://selleckchem.com/products/Sulfamethoxazole.html

$$$$
