GANTRISIN (sulfisoxazole).cdx
 OpenBabel08302519503D

 31 32  0  0  0  0  0  0  0  0999 V2000
    0.2471   -0.8282    0.8609 C   0  0  0  0  0  0  0  0  0  0  0  0
    0.9326    0.1346    0.1095 C   0  0  0  0  0  0  0  0  0  0  0  0
    0.1947    1.0875   -0.6012 C   0  0  0  0  0  0  0  0  0  0  0  0
   -1.1990    1.0204   -0.6520 C   0  0  0  0  0  0  0  0  0  0  0  0
   -1.8593    0.0054    0.0415 C   0  0  0  0  0  0  0  0  0  0  0  0
   -1.1432   -0.9095    0.8164 C   0  0  0  0  0  0  0  0  0  0  0  0
    2.3153    0.2821    0.2560 N   0  0  0  0  0  0  0  0  0  0  0  0
   -3.6232   -0.0758    0.0211 S   0  0  0  0  0  0  0  0  0  0  0  0
   -3.9289   -0.9804   -1.3768 N   0  0  0  0  0  0  0  0  0  0  0  0
   -4.0650   -2.3686   -1.1281 C   0  0  0  0  0  0  0  0  0  0  0  0
   -5.2513   -3.0475   -0.9692 C   0  0  0  0  0  0  0  0  0  0  0  0
   -4.8472   -4.4082   -0.8856 C   0  0  0  0  0  0  0  0  0  0  0  0
   -3.5150   -4.5309   -0.9410 N   0  0  0  0  0  0  0  0  0  0  0  0
   -3.0272   -3.2421   -1.0697 O   0  0  0  0  0  0  0  0  0  0  0  0
   -4.0831   -0.7920    1.1908 O   0  0  0  0  0  0  0  0  0  0  0  0
   -4.1310    1.2498   -0.2716 O   0  0  0  0  0  0  0  0  0  0  0  0
   -5.7036   -5.6106   -0.7542 C   0  0  0  0  0  0  0  0  0  0  0  0
   -6.6116   -2.4788   -0.8493 C   0  0  0  0  0  0  0  0  0  0  0  0
    0.7973   -1.5273    1.4864 H   0  0  0  0  0  0  0  0  0  0  0  0
    0.7041    1.8961   -1.1203 H   0  0  0  0  0  0  0  0  0  0  0  0
   -1.7549    1.7650   -1.2173 H   0  0  0  0  0  0  0  0  0  0  0  0
   -1.6581   -1.6770    1.3932 H   0  0  0  0  0  0  0  0  0  0  0  0
    2.7611    0.7580   -0.5217 H   0  0  0  0  0  0  0  0  0  0  0  0
    2.7937   -0.5790    0.5024 H   0  0  0  0  0  0  0  0  0  0  0  0
   -4.7130   -0.5333   -1.8481 H   0  0  0  0  0  0  0  0  0  0  0  0
   -6.2936   -5.5630    0.1659 H   0  0  0  0  0  0  0  0  0  0  0  0
   -6.3936   -5.6747   -1.6027 H   0  0  0  0  0  0  0  0  0  0  0  0
   -5.1126   -6.5318   -0.7337 H   0  0  0  0  0  0  0  0  0  0  0  0
   -6.6827   -1.8753    0.0628 H   0  0  0  0  0  0  0  0  0  0  0  0
   -6.8420   -1.8360   -1.7036 H   0  0  0  0  0  0  0  0  0  0  0  0
   -7.3747   -3.2596   -0.7910 H   0  0  0  0  0  0  0  0  0  0  0  0
  1  2  2  0  0  0  0
  1 19  1  0  0  0  0
  2  3  1  0  0  0  0
  2  7  1  0  0  0  0
  3  4  2  0  0  0  0
  3 20  1  0  0  0  0
  4  5  1  0  0  0  0
  4 21  1  0  0  0  0
  5  6  2  0  0  0  0
  5  8  1  0  0  0  0
  6  1  1  0  0  0  0
  6 22  1  0  0  0  0
  7 23  1  0  0  0  0
  7 24  1  0  0  0  0
  8  9  1  0  0  0  0
  8 15  2  0  0  0  0
  8 16  2  0  0  0  0
  9 10  1  0  0  0  0
  9 25  1  0  0  0  0
 10 11  2  0  0  0  0
 11 12  1  0  0  0  0
 11 18  1  0  0  0  0
 12 13  2  0  0  0  0
 12 17  1  0  0  0  0
 13 14  1  0  0  0  0
 14 10  1  0  0  0  0
 17 26  1  0  0  0  0
 17 27  1  0  0  0  0
 17 28  1  0  0  0  0
 18 29  1  0  0  0  0
 18 30  1  0  0  0  0
 18 31  1  0  0  0  0
M  END
>  <Mol_ID>
185

>  <Formula>
C11H13N3O3S

>  <MolWeight>
267.30422

>  <Cat>
S1916

>  <Name>
Sulfisoxazole

>  <Synonyms>
NU-445

>  <Target>
Bacterial

>  <Form>
free base

>  <CAS>
127-69-5

>  <URL>
http://selleckchem.com/products/Sulfisoxazole.html

$$$$
