Gastrodin.cdx
 OpenBabel08302521263D

 38 39  0  0  0  0  0  0  0  0999 V2000
   -1.3645   -0.0905    0.1976 C   0  0  1  0  0  0  0  0  0  0  0  0
   -0.0721   -0.7885   -0.2598 C   0  0  1  0  0  0  0  0  0  0  0  0
    1.1842   -0.0724    0.2745 C   0  0  2  0  0  0  0  0  0  0  0  0
    1.0944    1.4237   -0.1056 C   0  0  1  0  0  0  0  0  0  0  0  0
   -0.1207    1.9861    0.4036 O   0  0  0  0  0  0  0  0  0  0  0  0
   -1.2911    1.3943   -0.1669 C   0  0  2  0  0  0  0  0  0  0  0  0
    2.2267    2.1309    0.4242 O   0  0  0  0  0  0  0  0  0  0  0  0
   -2.5049    2.1675    0.3550 C   0  0  0  0  0  0  0  0  0  0  0  0
   -0.1056   -2.1704    0.1179 O   0  0  0  0  0  0  0  0  0  0  0  0
    2.2878    3.4637    0.1022 C   0  0  0  0  0  0  0  0  0  0  0  0
    2.9524    4.2823    1.0167 C   0  0  0  0  0  0  0  0  0  0  0  0
    3.0349    5.6635    0.8045 C   0  0  0  0  0  0  0  0  0  0  0  0
    2.4618    6.2405   -0.3357 C   0  0  0  0  0  0  0  0  0  0  0  0
    1.8356    5.4084   -1.2695 C   0  0  0  0  0  0  0  0  0  0  0  0
    1.7525    4.0330   -1.0548 C   0  0  0  0  0  0  0  0  0  0  0  0
    2.4940    7.7272   -0.5666 C   0  0  0  0  0  0  0  0  0  0  0  0
    3.1878    8.0334   -1.7695 O   0  0  0  0  0  0  0  0  0  0  0  0
   -2.5177   -0.6753   -0.4086 O   0  0  0  0  0  0  0  0  0  0  0  0
    2.3642   -0.6940   -0.2577 O   0  0  0  0  0  0  0  0  0  0  0  0
   -2.3923    3.5382   -0.0308 O   0  0  0  0  0  0  0  0  0  0  0  0
   -1.4674   -0.2175    1.2821 H   0  0  0  0  0  0  0  0  0  0  0  0
   -0.0382   -0.8060   -1.3579 H   0  0  0  0  0  0  0  0  0  0  0  0
    1.2477   -0.1837    1.3628 H   0  0  0  0  0  0  0  0  0  0  0  0
    1.1207    1.4777   -1.2004 H   0  0  0  0  0  0  0  0  0  0  0  0
   -1.2498    1.5256   -1.2549 H   0  0  0  0  0  0  0  0  0  0  0  0
   -3.4394    1.7768   -0.0554 H   0  0  0  0  0  0  0  0  0  0  0  0
   -2.5576    2.1367    1.4485 H   0  0  0  0  0  0  0  0  0  0  0  0
    0.0473   -2.2321    1.0784 H   0  0  0  0  0  0  0  0  0  0  0  0
    3.3879    3.8502    1.9142 H   0  0  0  0  0  0  0  0  0  0  0  0
    3.5358    6.2819    1.5455 H   0  0  0  0  0  0  0  0  0  0  0  0
    1.3970    5.8358   -2.1706 H   0  0  0  0  0  0  0  0  0  0  0  0
    1.2582    3.4423   -1.8162 H   0  0  0  0  0  0  0  0  0  0  0  0
    1.4736    8.1183   -0.6385 H   0  0  0  0  0  0  0  0  0  0  0  0
    2.9969    8.2482    0.2539 H   0  0  0  0  0  0  0  0  0  0  0  0
    3.8788    7.3584   -1.8822 H   0  0  0  0  0  0  0  0  0  0  0  0
   -2.2280   -1.3263   -1.0736 H   0  0  0  0  0  0  0  0  0  0  0  0
    2.2867   -0.7541   -1.2251 H   0  0  0  0  0  0  0  0  0  0  0  0
   -1.5094    3.8306    0.2825 H   0  0  0  0  0  0  0  0  0  0  0  0
  1  2  1  0  0  0  0
  1 18  1  0  0  0  0
  1 21  1  1  0  0  0
  2  3  1  0  0  0  0
  2  9  1  0  0  0  0
  2 22  1  6  0  0  0
  3  4  1  0  0  0  0
  3 19  1  0  0  0  0
  3 23  1  1  0  0  0
  4  5  1  0  0  0  0
  4  7  1  0  0  0  0
  4 24  1  6  0  0  0
  5  6  1  0  0  0  0
  6  1  1  0  0  0  0
  6  8  1  0  0  0  0
  6 25  1  6  0  0  0
  7 10  1  0  0  0  0
  8 20  1  0  0  0  0
  8 26  1  0  0  0  0
  8 27  1  0  0  0  0
  9 28  1  0  0  0  0
 10 11  2  0  0  0  0
 11 12  1  0  0  0  0
 11 29  1  0  0  0  0
 12 13  2  0  0  0  0
 12 30  1  0  0  0  0
 13 14  1  0  0  0  0
 13 16  1  0  0  0  0
 14 15  2  0  0  0  0
 14 31  1  0  0  0  0
 15 10  1  0  0  0  0
 15 32  1  0  0  0  0
 16 17  1  0  0  0  0
 16 33  1  0  0  0  0
 16 34  1  0  0  0  0
 17 35  1  0  0  0  0
 18 36  1  0  0  0  0
 19 37  1  0  0  0  0
 20 38  1  0  0  0  0
M  END
>  <Mol_ID>
501

>  <Formula>
C13H18O7

>  <MolWeight>
286.27782

>  <Cat>
S2383

>  <Name>
Gastrodin

>  <Synonyms>
Gastrodine

>  <Target>
Immunology & Inflammation related

>  <Form>
free base

>  <CAS>
62499-27-8

>  <URL>
http://selleckchem.com/products/Gastrodin(Gastrodine).html

$$$$
