Gatifloxacin hydrochloride
 OpenBabel08302521453D

 49 52  0  0  0  0  0  0  0  0999 V2000
    1.0370   -0.0098   -0.1188 F   0  0  0  0  0  0  0  0  0  0  0  0
    5.1531   -2.5141    0.2285 O   0  0  0  0  0  0  0  0  0  0  0  0
    4.5427    3.4555   -0.0456 O   0  0  0  0  0  0  0  0  0  0  0  0
    6.7271    4.7792    0.0090 O   0  0  0  0  0  0  0  0  0  0  0  0
    8.6671    3.6322   -0.0577 O   0  0  0  0  0  0  0  0  0  0  0  0
    6.6205   -0.0414   -0.0171 N   0  0  0  0  0  0  0  0  0  0  0  0
    2.2404   -2.5128    0.3563 N   0  0  0  0  0  0  0  0  0  0  0  0
    0.7900   -4.9452    1.1049 N   0  0  0  0  0  0  0  0  0  0  0  0
    7.4464   -1.2587   -0.1793 C   0  0  0  0  0  0  0  0  0  0  0  0
    7.9875   -1.9234    1.0680 C   0  0  0  0  0  0  0  0  0  0  0  0
    8.9307   -1.4280    0.0254 C   0  0  0  0  0  0  0  0  0  0  0  0
    5.1790   -0.1260    0.0401 C   0  0  0  0  0  0  0  0  0  0  0  0
    7.2392    1.2041   -0.0575 C   0  0  0  0  0  0  0  0  0  0  0  0
    4.4289   -1.3425    0.1677 C   0  0  0  0  0  0  0  0  0  0  0  0
    4.4548    1.0830   -0.0236 C   0  0  0  0  0  0  0  0  0  0  0  0
    3.0004   -1.3575    0.1501 C   0  0  0  0  0  0  0  0  0  0  0  0
    0.8731   -2.4096    0.9078 C   0  0  0  0  0  0  0  0  0  0  0  0
    0.5406   -3.6500    1.7848 C   0  0  3  0  0  0  0  0  0  0  0  0
    2.4579   -3.7509   -0.4122 C   0  0  0  0  0  0  0  0  0  0  0  0
    2.1403   -4.9711    0.4993 C   0  0  0  0  0  0  0  0  0  0  0  0
    6.6296    2.3934   -0.0476 C   0  0  0  0  0  0  0  0  0  0  0  0
    5.1565    2.3888   -0.0429 C   0  0  0  0  0  0  0  0  0  0  0  0
    3.0698    1.1001   -0.0705 C   0  0  0  0  0  0  0  0  0  0  0  0
    2.3731   -0.0982   -0.0058 C   0  0  0  0  0  0  0  0  0  0  0  0
    1.2540   -3.5683    3.1396 C   0  0  0  0  0  0  0  0  0  0  0  0
    7.4443    3.6317   -0.0377 C   0  0  0  0  0  0  0  0  0  0  0  0
    4.9560   -3.3312    1.3779 C   0  0  0  0  0  0  0  0  0  0  0  0
    5.7484    4.6421    0.0144 H   0  0  0  0  0  0  0  0  0  0  0  0
    0.1193   -5.0206    0.3388 H   0  0  0  0  0  0  0  0  0  0  0  0
    7.0777   -1.8726   -0.9978 H   0  0  0  0  0  0  0  0  0  0  0  0
    7.9304   -1.3736    2.0011 H   0  0  0  0  0  0  0  0  0  0  0  0
    7.8412   -2.9910    1.1666 H   0  0  0  0  0  0  0  0  0  0  0  0
    9.4287   -2.1869   -0.5725 H   0  0  0  0  0  0  0  0  0  0  0  0
    9.5656   -0.5904    0.2763 H   0  0  0  0  0  0  0  0  0  0  0  0
    8.3176    1.1541   -0.0841 H   0  0  0  0  0  0  0  0  0  0  0  0
    0.7521   -1.5204    1.5369 H   0  0  0  0  0  0  0  0  0  0  0  0
    0.1550   -2.3461    0.0799 H   0  0  0  0  0  0  0  0  0  0  0  0
   -0.5321   -3.6170    2.0038 H   0  0  0  0  0  0  0  0  0  0  0  0
    1.7857   -3.7648   -1.2779 H   0  0  0  0  0  0  0  0  0  0  0  0
    3.4700   -3.8487   -0.8135 H   0  0  0  0  0  0  0  0  0  0  0  0
    2.8656   -5.0484    1.3148 H   0  0  0  0  0  0  0  0  0  0  0  0
    2.2489   -5.8944   -0.0800 H   0  0  0  0  0  0  0  0  0  0  0  0
    2.5121    2.0291   -0.1631 H   0  0  0  0  0  0  0  0  0  0  0  0
    0.8991   -2.6950    3.7006 H   0  0  0  0  0  0  0  0  0  0  0  0
    1.0575   -4.4545    3.7501 H   0  0  0  0  0  0  0  0  0  0  0  0
    2.3362   -3.4648    3.0446 H   0  0  0  0  0  0  0  0  0  0  0  0
    5.8006   -3.2536    2.0634 H   0  0  0  0  0  0  0  0  0  0  0  0
    4.0559   -3.1040    1.9422 H   0  0  0  0  0  0  0  0  0  0  0  0
    4.9277   -4.3687    1.0284 H   0  0  0  0  0  0  0  0  0  0  0  0
  1 24  1  0  0  0  0
  2 14  1  0  0  0  0
  2 27  1  0  0  0  0
  3 22  2  0  0  0  0
  4 26  1  0  0  0  0
  4 28  1  0  0  0  0
  5 26  2  0  0  0  0
  6  9  1  0  0  0  0
  6 12  1  0  0  0  0
  6 13  1  0  0  0  0
  7 16  1  0  0  0  0
  7 17  1  0  0  0  0
  7 19  1  0  0  0  0
  8 18  1  0  0  0  0
  8 20  1  0  0  0  0
  8 29  1  0  0  0  0
  9 10  1  0  0  0  0
  9 11  1  0  0  0  0
  9 30  1  0  0  0  0
 10 11  1  0  0  0  0
 10 31  1  0  0  0  0
 10 32  1  0  0  0  0
 11 33  1  0  0  0  0
 11 34  1  0  0  0  0
 12 14  2  0  0  0  0
 12 15  1  0  0  0  0
 13 21  2  0  0  0  0
 13 35  1  0  0  0  0
 14 16  1  0  0  0  0
 15 22  1  0  0  0  0
 15 23  2  0  0  0  0
 16 24  2  0  0  0  0
 17 18  1  0  0  0  0
 17 36  1  0  0  0  0
 17 37  1  0  0  0  0
 18 25  1  0  0  0  0
 18 38  1  0  0  0  0
 19 20  1  0  0  0  0
 19 39  1  0  0  0  0
 19 40  1  0  0  0  0
 20 41  1  0  0  0  0
 20 42  1  0  0  0  0
 21 22  1  0  0  0  0
 21 26  1  0  0  0  0
 23 24  1  0  0  0  0
 23 43  1  0  0  0  0
 25 44  1  0  0  0  0
 25 45  1  0  0  0  0
 25 46  1  0  0  0  0
 27 47  1  0  0  0  0
 27 48  1  0  0  0  0
 27 49  1  0  0  0  0
M  END
>  <Mol_ID>
9374

>  <Formula>
C19H23ClFN3O4

>  <MolWeight>
411.8550232

>  <Cat>
S5964

>  <Name>
Gatifloxacin hydrochloride

>  <Synonyms>
AM-1155 hydrochloride, CG5501 hydrochloride, BMS-206584 hydrochloride, PD135432 hydrochloride

>  <Target>
Topoisomerase

>  <Form>
Hydrochloride

>  <CAS>
121577-32-0

>  <URL>
http://www.selleckchem.com/products/gatifloxacin-hydrochloride.html

$$$$
