GCN2iB
 OpenBabel08302521263D

 42 44  0  0  0  0  0  0  0  0999 V2000
    6.5953   -5.5985    1.3546 C   0  0  0  0  0  0  0  0  0  0  0  0
    6.2862   -4.3907    0.7659 C   0  0  0  0  0  0  0  0  0  0  0  0
    5.0993   -3.7677    1.1398 C   0  0  0  0  0  0  0  0  0  0  0  0
    4.2725   -4.3548    2.1098 C   0  0  0  0  0  0  0  0  0  0  0  0
    4.7105   -5.5185    2.7134 C   0  0  0  0  0  0  0  0  0  0  0  0
    5.8339   -6.1702    2.3065 N   0  0  0  0  0  0  0  0  0  0  0  0
    4.0457   -6.0671    3.7815 O   0  0  0  0  0  0  0  0  0  0  0  0
    4.9074   -6.8841    4.5817 C   0  0  0  0  0  0  0  0  0  0  0  0
    2.8304   -3.4733    2.6069 S   0  0  0  0  0  0  0  0  0  0  0  0
    1.6785   -3.8175    1.4379 N   0  0  0  0  0  0  0  0  0  0  0  0
    1.0600   -5.0888    1.3254 C   0  0  0  0  0  0  0  0  0  0  0  0
    1.5562   -6.0495    0.4402 C   0  0  0  0  0  0  0  0  0  0  0  0
    0.8780   -7.2519    0.2392 C   0  0  0  0  0  0  0  0  0  0  0  0
   -0.3288   -7.4632    0.9054 C   0  0  0  0  0  0  0  0  0  0  0  0
   -0.8347   -6.5146    1.7929 C   0  0  0  0  0  0  0  0  0  0  0  0
   -0.1319   -5.3269    2.0141 C   0  0  0  0  0  0  0  0  0  0  0  0
   -1.0333   -8.5860    0.6964 F   0  0  0  0  0  0  0  0  0  0  0  0
    2.3408   -3.9457    3.8841 O   0  0  0  0  0  0  0  0  0  0  0  0
    3.1245   -2.0669    2.4201 O   0  0  0  0  0  0  0  0  0  0  0  0
    2.6808   -5.7877   -0.2463 F   0  0  0  0  0  0  0  0  0  0  0  0
    1.4234   -8.2570   -0.6169 C   0  0  0  0  0  0  0  0  0  0  0  0
    1.9222   -9.1200   -1.2843 C   0  0  0  0  0  0  0  0  0  0  0  0
    2.5590  -10.1618   -2.0223 C   0  0  0  0  0  0  0  0  0  0  0  0
    2.2486  -11.4918   -1.8514 C   0  0  0  0  0  0  0  0  0  0  0  0
    2.8670  -12.4977   -2.5121 N   0  0  0  0  0  0  0  0  0  0  0  0
    3.8385  -12.1425   -3.3608 C   0  0  0  0  0  0  0  0  0  0  0  0
    4.2014  -10.8835   -3.6258 N   0  0  0  0  0  0  0  0  0  0  0  0
    3.5540   -9.9153   -2.9394 C   0  0  0  0  0  0  0  0  0  0  0  0
    4.4928  -13.1512   -4.0353 N   0  0  0  0  0  0  0  0  0  0  0  0
    7.4962   -6.1457    1.0925 H   0  0  0  0  0  0  0  0  0  0  0  0
    6.9568   -3.9409    0.0423 H   0  0  0  0  0  0  0  0  0  0  0  0
    4.8430   -2.8085    0.6953 H   0  0  0  0  0  0  0  0  0  0  0  0
    5.0649   -7.8575    4.1037 H   0  0  0  0  0  0  0  0  0  0  0  0
    5.8704   -6.3949    4.7826 H   0  0  0  0  0  0  0  0  0  0  0  0
    4.4266   -7.0536    5.5490 H   0  0  0  0  0  0  0  0  0  0  0  0
    1.5900   -3.1440    0.6792 H   0  0  0  0  0  0  0  0  0  0  0  0
   -1.7759   -6.7060    2.3025 H   0  0  0  0  0  0  0  0  0  0  0  0
   -0.5304   -4.5862    2.7046 H   0  0  0  0  0  0  0  0  0  0  0  0
    1.4780  -11.8097   -1.1537 H   0  0  0  0  0  0  0  0  0  0  0  0
    3.8826   -8.9028   -3.1594 H   0  0  0  0  0  0  0  0  0  0  0  0
    4.8676  -12.7915   -4.9015 H   0  0  0  0  0  0  0  0  0  0  0  0
    3.9003  -13.9677   -4.0852 H   0  0  0  0  0  0  0  0  0  0  0  0
  1  2  2  0  0  0  0
  1 30  1  0  0  0  0
  2  3  1  0  0  0  0
  2 31  1  0  0  0  0
  3  4  2  0  0  0  0
  3 32  1  0  0  0  0
  4  5  1  0  0  0  0
  4  9  1  0  0  0  0
  5  6  2  0  0  0  0
  5  7  1  0  0  0  0
  6  1  1  0  0  0  0
  7  8  1  0  0  0  0
  8 33  1  0  0  0  0
  8 34  1  0  0  0  0
  8 35  1  0  0  0  0
  9 10  1  0  0  0  0
  9 18  2  0  0  0  0
  9 19  2  0  0  0  0
 10 11  1  0  0  0  0
 10 36  1  0  0  0  0
 11 12  2  0  0  0  0
 12 13  1  0  0  0  0
 12 20  1  0  0  0  0
 13 14  2  0  0  0  0
 13 21  1  0  0  0  0
 14 15  1  0  0  0  0
 14 17  1  0  0  0  0
 15 16  2  0  0  0  0
 15 37  1  0  0  0  0
 16 11  1  0  0  0  0
 16 38  1  0  0  0  0
 21 22  3  0  0  0  0
 22 23  1  0  0  0  0
 23 24  2  0  0  0  0
 24 25  1  0  0  0  0
 24 39  1  0  0  0  0
 25 26  2  0  0  0  0
 26 27  1  0  0  0  0
 26 29  1  0  0  0  0
 27 28  2  0  0  0  0
 28 23  1  0  0  0  0
 28 40  1  0  0  0  0
 29 41  1  0  0  0  0
 29 42  1  0  0  0  0
M  END
>  <Mol_ID>
5228

>  <Formula>
C18H12ClF2N5O3S

>  <MolWeight>
451.8343864

>  <Cat>
S8929

>  <Name>
GCN2iB

>  <Synonyms>
N/A

>  <Target>
Serine/threonin kinase

>  <Form>
free base

>  <CAS>
2183470-12-2

>  <URL>
http://www.selleckchem.com/products/gcn2ib.html

$$$$
