GDC-0575 (ARRY-575)
 OpenBabel08302521043D

 43 46  0  0  0  0  0  0  0  0999 V2000
   -0.2641   -0.9274    0.0138 C   0  0  0  0  0  0  0  0  0  0  0  0
   -0.3125    0.4754    0.0157 C   0  0  0  0  0  0  0  0  0  0  0  0
    0.6921    1.3582   -0.0254 N   0  0  0  0  0  0  0  0  0  0  0  0
    1.8893    0.7651   -0.0255 C   0  0  0  0  0  0  0  0  0  0  0  0
    2.1265   -0.6111   -0.0256 C   0  0  0  0  0  0  0  0  0  0  0  0
    1.0399   -1.5553   -0.0455 C   0  0  0  0  0  0  0  0  0  0  0  0
   -1.6576   -1.3186    0.1451 C   0  0  0  0  0  0  0  0  0  0  0  0
   -2.4290   -0.1689    0.1568 C   0  0  0  0  0  0  0  0  0  0  0  0
   -1.6024    0.9032    0.0786 N   0  0  0  0  0  0  0  0  0  0  0  0
   -2.2320   -2.5851    0.2507 N   0  0  0  0  0  0  0  0  0  0  0  0
   -3.3959   -2.7911    0.9929 C   0  0  0  0  0  0  0  0  0  0  0  0
   -4.0599   -4.1106    0.9057 C   0  0  0  0  0  0  0  0  0  0  0  0
   -3.9127   -1.9611    1.7406 O   0  0  0  0  0  0  0  0  0  0  0  0
    3.9972   -0.9848    0.1103 Br  0  0  0  0  0  0  0  0  0  0  0  0
    1.1809   -2.9773   -0.1084 N   0  0  0  0  0  0  0  0  0  0  0  0
    2.3243   -3.4727   -0.9280 C   0  0  0  0  0  0  0  0  0  0  0  0
    2.2733   -5.0009   -1.1362 C   0  0  1  0  0  0  0  0  0  0  0  0
    2.2569   -5.6708    0.2455 C   0  0  0  0  0  0  0  0  0  0  0  0
    1.1181   -5.1335    1.1159 C   0  0  0  0  0  0  0  0  0  0  0  0
    1.1426   -3.5987    1.2338 C   0  0  0  0  0  0  0  0  0  0  0  0
    1.1212   -5.3924   -1.9530 N   0  0  0  0  0  0  0  0  0  0  0  0
   -3.7677   -5.2370   -0.0412 C   0  0  0  0  0  0  0  0  0  0  0  0
   -4.9531   -4.3526   -0.2946 C   0  0  0  0  0  0  0  0  0  0  0  0
    2.7149    1.4742   -0.0098 H   0  0  0  0  0  0  0  0  0  0  0  0
   -3.4993   -0.0242    0.2220 H   0  0  0  0  0  0  0  0  0  0  0  0
   -1.8717    1.8771    0.0900 H   0  0  0  0  0  0  0  0  0  0  0  0
   -1.7018   -3.3631   -0.1168 H   0  0  0  0  0  0  0  0  0  0  0  0
   -4.4773   -4.4031    1.8665 H   0  0  0  0  0  0  0  0  0  0  0  0
    2.3617   -2.9602   -1.8964 H   0  0  0  0  0  0  0  0  0  0  0  0
    3.2660   -3.3246   -0.4016 H   0  0  0  0  0  0  0  0  0  0  0  0
    3.1826   -5.3134   -1.6648 H   0  0  0  0  0  0  0  0  0  0  0  0
    2.1834   -6.7605    0.1460 H   0  0  0  0  0  0  0  0  0  0  0  0
    3.2138   -5.4758    0.7509 H   0  0  0  0  0  0  0  0  0  0  0  0
    0.1596   -5.4566    0.6925 H   0  0  0  0  0  0  0  0  0  0  0  0
    1.1881   -5.5803    2.1146 H   0  0  0  0  0  0  0  0  0  0  0  0
    2.0191   -3.2941    1.8195 H   0  0  0  0  0  0  0  0  0  0  0  0
    0.2479   -3.2864    1.7848 H   0  0  0  0  0  0  0  0  0  0  0  0
    0.9000   -6.3731   -1.7990 H   0  0  0  0  0  0  0  0  0  0  0  0
    0.3191   -4.8423   -1.6444 H   0  0  0  0  0  0  0  0  0  0  0  0
   -2.9305   -5.1744   -0.7207 H   0  0  0  0  0  0  0  0  0  0  0  0
   -3.9762   -6.2438    0.3103 H   0  0  0  0  0  0  0  0  0  0  0  0
   -5.9509   -4.7304   -0.1013 H   0  0  0  0  0  0  0  0  0  0  0  0
   -4.8992   -3.6619   -1.1300 H   0  0  0  0  0  0  0  0  0  0  0  0
  1  2  1  0  0  0  0
  1  7  1  0  0  0  0
  2  3  2  0  0  0  0
  3  4  1  0  0  0  0
  4  5  2  0  0  0  0
  4 24  1  0  0  0  0
  5  6  1  0  0  0  0
  5 14  1  0  0  0  0
  6  1  2  0  0  0  0
  6 15  1  0  0  0  0
  7  8  2  0  0  0  0
  7 10  1  0  0  0  0
  8  9  1  0  0  0  0
  8 25  1  0  0  0  0
  9  2  1  0  0  0  0
  9 26  1  0  0  0  0
 10 11  1  0  0  0  0
 10 27  1  0  0  0  0
 11 12  1  0  0  0  0
 11 13  2  0  0  0  0
 12 22  1  0  0  0  0
 12 28  1  0  0  0  0
 15 16  1  0  0  0  0
 16 17  1  0  0  0  0
 16 29  1  0  0  0  0
 16 30  1  0  0  0  0
 17 18  1  0  0  0  0
 17 21  1  0  0  0  0
 17 31  1  6  0  0  0
 18 19  1  0  0  0  0
 18 32  1  0  0  0  0
 18 33  1  0  0  0  0
 19 20  1  0  0  0  0
 19 34  1  0  0  0  0
 19 35  1  0  0  0  0
 20 15  1  0  0  0  0
 20 36  1  0  0  0  0
 20 37  1  0  0  0  0
 21 38  1  0  0  0  0
 21 39  1  0  0  0  0
 22 23  1  0  0  0  0
 22 40  1  0  0  0  0
 22 41  1  0  0  0  0
 23 12  1  0  0  0  0
 23 42  1  0  0  0  0
 23 43  1  0  0  0  0
M  END
>  <Mol_ID>
4293

>  <Formula>
C16H20BrN5O

>  <MolWeight>
378.2669

>  <Cat>
S8526

>  <Name>
GDC-0575 (ARRY-575)

>  <Synonyms>
RG7741

>  <Target>
Chk

>  <Form>
Free Base

>  <CAS>
1196541-47-5

>  <URL>
http://www.selleckchem.com/products/gdc-0575.html

$$$$
