GDC-0879.cdx
 OpenBabel08302521313D

 43 46  0  0  0  0  0  0  0  0999 V2000
   -0.8477   -0.9541    0.2760 C   0  0  0  0  0  0  0  0  0  0  0  0
    0.5693   -1.5023    0.2042 C   0  0  0  0  0  0  0  0  0  0  0  0
   -1.1751   -0.2656   -0.9288 O   0  0  0  0  0  0  0  0  0  0  0  0
    0.9380   -2.1951    1.4180 N   0  0  0  0  0  0  0  0  0  0  0  0
    0.6863   -3.5069    1.5445 N   0  0  0  0  0  0  0  0  0  0  0  0
    1.1099   -3.8158    2.7853 C   0  0  0  0  0  0  0  0  0  0  0  0
    1.6666   -2.6560    3.4355 C   0  0  0  0  0  0  0  0  0  0  0  0
    1.5435   -1.6441    2.5032 C   0  0  0  0  0  0  0  0  0  0  0  0
    1.2693   -7.5449    2.9689 C   0  0  0  0  0  0  0  0  0  0  0  0
    1.2479   -6.2680    2.4316 C   0  0  0  0  0  0  0  0  0  0  0  0
    1.0022   -5.1905    3.2842 C   0  0  0  0  0  0  0  0  0  0  0  0
    0.7200   -5.4580    4.6253 C   0  0  0  0  0  0  0  0  0  0  0  0
    0.7965   -6.7655    5.0752 C   0  0  0  0  0  0  0  0  0  0  0  0
    1.0711   -7.8155    4.2768 N   0  0  0  0  0  0  0  0  0  0  0  0
    3.5761   -3.2816    6.6430 C   0  0  0  0  0  0  0  0  0  0  0  0
    3.0696   -3.4413    5.3499 C   0  0  0  0  0  0  0  0  0  0  0  0
    2.2670   -2.4460    4.7494 C   0  0  0  0  0  0  0  0  0  0  0  0
    2.0296   -1.2443    5.4431 C   0  0  0  0  0  0  0  0  0  0  0  0
    2.5739   -1.0702    6.7072 C   0  0  0  0  0  0  0  0  0  0  0  0
    3.3167   -2.0884    7.2875 C   0  0  0  0  0  0  0  0  0  0  0  0
    3.7444   -1.6458    8.6033 C   0  0  0  0  0  0  0  0  0  0  0  0
    3.2457   -0.2416    8.8500 C   0  0  0  0  0  0  0  0  0  0  0  0
    2.4775    0.1417    7.5765 C   0  0  0  0  0  0  0  0  0  0  0  0
    4.4490   -2.3773    9.4060 N   0  0  0  0  0  0  0  0  0  0  0  0
    4.7161   -1.6837   10.5912 O   0  0  0  0  0  0  0  0  0  0  0  0
   -0.9454   -0.2407    1.1020 H   0  0  0  0  0  0  0  0  0  0  0  0
   -1.5848   -1.7481    0.4380 H   0  0  0  0  0  0  0  0  0  0  0  0
    0.6796   -2.1959   -0.6370 H   0  0  0  0  0  0  0  0  0  0  0  0
    1.2876   -0.6918    0.0391 H   0  0  0  0  0  0  0  0  0  0  0  0
   -1.2576   -0.9320   -1.6340 H   0  0  0  0  0  0  0  0  0  0  0  0
    1.8329   -0.5998    2.5230 H   0  0  0  0  0  0  0  0  0  0  0  0
    1.4672   -8.4104    2.3436 H   0  0  0  0  0  0  0  0  0  0  0  0
    1.4421   -6.1168    1.3748 H   0  0  0  0  0  0  0  0  0  0  0  0
    0.4909   -4.6673    5.3303 H   0  0  0  0  0  0  0  0  0  0  0  0
    0.6498   -7.0044    6.1251 H   0  0  0  0  0  0  0  0  0  0  0  0
    4.1600   -4.0618    7.1203 H   0  0  0  0  0  0  0  0  0  0  0  0
    3.3010   -4.3625    4.8187 H   0  0  0  0  0  0  0  0  0  0  0  0
    1.4237   -0.4548    5.0070 H   0  0  0  0  0  0  0  0  0  0  0  0
    4.0916    0.4326    9.0179 H   0  0  0  0  0  0  0  0  0  0  0  0
    2.5912   -0.2209    9.7269 H   0  0  0  0  0  0  0  0  0  0  0  0
    2.9465    1.0026    7.0878 H   0  0  0  0  0  0  0  0  0  0  0  0
    1.4347    0.3836    7.8042 H   0  0  0  0  0  0  0  0  0  0  0  0
    5.2592   -2.3234   11.0881 H   0  0  0  0  0  0  0  0  0  0  0  0
  1  2  1  0  0  0  0
  1  3  1  0  0  0  0
  1 26  1  0  0  0  0
  1 27  1  0  0  0  0
  2  4  1  0  0  0  0
  2 28  1  0  0  0  0
  2 29  1  0  0  0  0
  3 30  1  0  0  0  0
  4  5  1  0  0  0  0
  4  8  1  0  0  0  0
  5  6  2  0  0  0  0
  6  7  1  0  0  0  0
  6 11  1  0  0  0  0
  7  8  2  0  0  0  0
  7 17  1  0  0  0  0
  8 31  1  0  0  0  0
  9 10  2  0  0  0  0
  9 14  1  0  0  0  0
  9 32  1  0  0  0  0
 10 11  1  0  0  0  0
 10 33  1  0  0  0  0
 11 12  2  0  0  0  0
 12 13  1  0  0  0  0
 12 34  1  0  0  0  0
 13 14  2  0  0  0  0
 13 35  1  0  0  0  0
 15 16  2  0  0  0  0
 15 20  1  0  0  0  0
 15 36  1  0  0  0  0
 16 17  1  0  0  0  0
 16 37  1  0  0  0  0
 17 18  2  0  0  0  0
 18 19  1  0  0  0  0
 18 38  1  0  0  0  0
 19 20  2  0  0  0  0
 20 21  1  0  0  0  0
 21 22  1  0  0  0  0
 21 24  2  0  0  0  0
 22 23  1  0  0  0  0
 22 39  1  0  0  0  0
 22 40  1  0  0  0  0
 23 19  1  0  0  0  0
 23 41  1  0  0  0  0
 23 42  1  0  0  0  0
 24 25  1  0  0  0  0
 25 43  1  0  0  0  0
M  END
>  <Mol_ID>
64

>  <Formula>
C19H18N4O2

>  <MolWeight>
334.37182

>  <Cat>
S1104

>  <Name>
GDC-0879

>  <Synonyms>
AR-00341677

>  <Target>
Raf

>  <Form>
free base

>  <CAS>
905281-76-7

>  <URL>
http://selleckchem.com/products/GDC-0879.html

$$$$
