Gemcitabine hydrochloride.cdx
 OpenBabel08302520413D

 29 30  0  0  0  0  0  0  0  0999 V2000
   -0.8070    0.7410    0.7930 C   0  0  0  0  0  0  0  0  0  0  0  0
   -0.8426   -0.6296    0.9000 N   0  0  0  0  0  0  0  0  0  0  0  0
    0.0142   -1.3509    0.2486 C   0  0  0  0  0  0  0  0  0  0  0  0
    1.0589   -0.7778   -0.6202 C   0  0  0  0  0  0  0  0  0  0  0  0
    1.0442    0.5488   -0.7506 C   0  0  0  0  0  0  0  0  0  0  0  0
    0.1125    1.3160   -0.0898 N   0  0  0  0  0  0  0  0  0  0  0  0
   -1.5799    1.4476    1.4377 O   0  0  0  0  0  0  0  0  0  0  0  0
    0.5736    3.1616   -1.5136 O   0  0  0  0  0  0  0  0  0  0  0  0
    0.0811    2.7709   -0.2043 C   0  0  2  0  0  0  0  0  0  0  0  0
    0.9003    3.5349    0.8499 C   0  0  0  0  0  0  0  0  0  0  0  0
    2.1079    4.0309    0.0746 C   0  0  1  0  0  0  0  0  0  0  0  0
    1.5229    4.2281   -1.3121 C   0  0  1  0  0  0  0  0  0  0  0  0
    2.5781    4.1518   -2.4121 C   0  0  0  0  0  0  0  0  0  0  0  0
    1.9609    4.3427   -3.6844 O   0  0  0  0  0  0  0  0  0  0  0  0
    2.6779    5.2411    0.5758 O   0  0  0  0  0  0  0  0  0  0  0  0
    0.2100    4.6094    1.3172 F   0  0  0  0  0  0  0  0  0  0  0  0
    1.2750    2.7968    1.9123 F   0  0  0  0  0  0  0  0  0  0  0  0
   -0.0770   -2.7085    0.3791 N   0  0  0  0  0  0  0  0  0  0  0  0
    1.7724   -1.4169   -1.1161 H   0  0  0  0  0  0  0  0  0  0  0  0
    1.7673    1.0502   -1.3841 H   0  0  0  0  0  0  0  0  0  0  0  0
   -0.9597    3.1109   -0.1633 H   0  0  0  0  0  0  0  0  0  0  0  0
    2.8903    3.2637    0.0731 H   0  0  0  0  0  0  0  0  0  0  0  0
    0.9758    5.1759   -1.3931 H   0  0  0  0  0  0  0  0  0  0  0  0
    3.3499    4.9157   -2.2847 H   0  0  0  0  0  0  0  0  0  0  0  0
    3.0563    3.1660   -2.4313 H   0  0  0  0  0  0  0  0  0  0  0  0
    1.1589    3.7859   -3.6913 H   0  0  0  0  0  0  0  0  0  0  0  0
    1.9598    5.7597    0.9921 H   0  0  0  0  0  0  0  0  0  0  0  0
    0.2211   -3.2771   -0.4034 H   0  0  0  0  0  0  0  0  0  0  0  0
   -0.9639   -3.0029    0.7775 H   0  0  0  0  0  0  0  0  0  0  0  0
  1  2  1  0  0  0  0
  1  6  1  0  0  0  0
  1  7  2  0  0  0  0
  2  3  2  0  0  0  0
  3  4  1  0  0  0  0
  3 18  1  0  0  0  0
  4  5  2  0  0  0  0
  4 19  1  0  0  0  0
  5  6  1  0  0  0  0
  5 20  1  0  0  0  0
  8  9  1  0  0  0  0
  8 12  1  0  0  0  0
  9 10  1  0  0  0  0
  9  6  1  0  0  0  0
  9 21  1  1  0  0  0
 10 11  1  0  0  0  0
 10 16  1  0  0  0  0
 10 17  1  0  0  0  0
 11 12  1  0  0  0  0
 11 15  1  0  0  0  0
 11 22  1  6  0  0  0
 12 23  1  6  0  0  0
 12 13  1  0  0  0  0
 13 14  1  0  0  0  0
 13 24  1  0  0  0  0
 13 25  1  0  0  0  0
 14 26  1  0  0  0  0
 15 27  1  0  0  0  0
 18 28  1  0  0  0  0
 18 29  1  0  0  0  0
M  END
>  <Mol_ID>
3996

>  <Formula>
C9H12ClF2N3O4

>  <MolWeight>
299.6590864

>  <Cat>
S1149

>  <Name>
Gemcitabine (LY-188011) HCl

>  <Synonyms>
NSC 613327,LY-188011 HCl

>  <Target>
Autophagy,DNA/RNA Synthesis,Nucleoside Analog/Antimetabolite

>  <Form>
Hydrochloride

>  <CAS>
122111-03-9

>  <URL>
http://selleckchem.com/products/Gemcitabine-Hydrochloride(Gemzar).html

$$$$
