GI-570310
 OpenBabel08302521403D

 34 36  0  0  0  0  0  0  0  0999 V2000
   -0.2868    0.7637   -0.2808 C   0  0  0  0  0  0  0  0  0  0  0  0
   -0.2893   -0.6101   -0.4770 C   0  0  0  0  0  0  0  0  0  0  0  0
    1.1060    1.1990   -0.2612 C   0  0  0  0  0  0  0  0  0  0  0  0
   -1.4517    1.4817   -0.0769 C   0  0  0  0  0  0  0  0  0  0  0  0
    1.1026   -1.0327   -0.6343 C   0  0  0  0  0  0  0  0  0  0  0  0
   -1.4558   -1.3507   -0.4532 C   0  0  0  0  0  0  0  0  0  0  0  0
    1.8689    0.0737   -0.3907 N   0  0  0  0  0  0  0  0  0  0  0  0
    1.4498    2.3554   -0.1178 O   0  0  0  0  0  0  0  0  0  0  0  0
   -2.6481    0.7479   -0.0474 C   0  0  0  0  0  0  0  0  0  0  0  0
    1.4276   -2.1563   -0.9644 O   0  0  0  0  0  0  0  0  0  0  0  0
   -2.6524   -0.6595   -0.2209 C   0  0  0  0  0  0  0  0  0  0  0  0
    3.3083    0.0610   -0.2792 C   0  0  0  0  0  0  0  0  0  0  0  0
   -3.9165    1.4496    0.1929 N   0  3  0  0  0  0  0  0  0  0  0  0
    3.6863   -0.3565    1.0770 N   0  0  0  0  0  0  0  0  0  0  0  0
   -3.8800    2.6841    0.2860 O   0  0  0  0  0  0  0  0  0  0  0  0
   -4.9430    0.7637    0.2866 O   0  5  0  0  0  0  0  0  0  0  0  0
    3.3784    0.6384    2.1282 C   0  0  0  0  0  0  0  0  0  0  0  0
    5.1264   -0.6887    1.1629 C   0  0  0  0  0  0  0  0  0  0  0  0
    4.3458    1.8315    2.1981 C   0  0  0  0  0  0  0  0  0  0  0  0
    6.0582    0.5333    1.2384 C   0  0  0  0  0  0  0  0  0  0  0  0
    5.7017    1.3893    2.3285 O   0  0  0  0  0  0  0  0  0  0  0  0
   -1.4141    2.5569    0.0724 H   0  0  0  0  0  0  0  0  0  0  0  0
   -1.4374   -2.4291   -0.5797 H   0  0  0  0  0  0  0  0  0  0  0  0
   -3.5832   -1.2246   -0.1652 H   0  0  0  0  0  0  0  0  0  0  0  0
    3.6735   -0.6739   -1.0048 H   0  0  0  0  0  0  0  0  0  0  0  0
    3.7163    1.0400   -0.5508 H   0  0  0  0  0  0  0  0  0  0  0  0
    3.4307    0.1063    3.0863 H   0  0  0  0  0  0  0  0  0  0  0  0
    2.3480    0.9984    2.0597 H   0  0  0  0  0  0  0  0  0  0  0  0
    5.2639   -1.2782    2.0789 H   0  0  0  0  0  0  0  0  0  0  0  0
    5.4282   -1.3414    0.3355 H   0  0  0  0  0  0  0  0  0  0  0  0
    4.2605    2.4816    1.3207 H   0  0  0  0  0  0  0  0  0  0  0  0
    4.1150    2.4359    3.0818 H   0  0  0  0  0  0  0  0  0  0  0  0
    7.0876    0.2008    1.4084 H   0  0  0  0  0  0  0  0  0  0  0  0
    6.0465    1.1119    0.3081 H   0  0  0  0  0  0  0  0  0  0  0  0
  1  2  2  0  0  0  0
  1  3  1  0  0  0  0
  1  4  1  0  0  0  0
  2  5  1  0  0  0  0
  2  6  1  0  0  0  0
  3  7  1  0  0  0  0
  3  8  2  0  0  0  0
  4  9  2  0  0  0  0
  4 22  1  0  0  0  0
  5 10  2  0  0  0  0
  5  7  1  0  0  0  0
  6 11  2  0  0  0  0
  6 23  1  0  0  0  0
  7 12  1  0  0  0  0
  9 13  1  0  0  0  0
  9 11  1  0  0  0  0
 11 24  1  0  0  0  0
 12 14  1  0  0  0  0
 12 25  1  0  0  0  0
 12 26  1  0  0  0  0
 13 15  2  0  0  0  0
 13 16  1  0  0  0  0
 14 17  1  0  0  0  0
 14 18  1  0  0  0  0
 17 19  1  0  0  0  0
 17 27  1  0  0  0  0
 17 28  1  0  0  0  0
 18 20  1  0  0  0  0
 18 29  1  0  0  0  0
 18 30  1  0  0  0  0
 19 21  1  0  0  0  0
 19 31  1  0  0  0  0
 19 32  1  0  0  0  0
 20 21  1  0  0  0  0
 20 33  1  0  0  0  0
 20 34  1  0  0  0  0
M  CHG  2  13   1  16  -1
M  END
>  <Mol_ID>
8281

>  <Formula>
C13H13N3O5

>  <MolWeight>
291.25942

>  <Cat>
P2036

>  <Name>
GI-570310

>  <Synonyms>
N/A

>  <Target>
a-glucosidase

>  <Form>
free base

>  <CAS>
301210-82-2

>  <URL>
N/A

$$$$
