GK921
 OpenBabel08302520403D

 46 49  0  0  0  0  0  0  0  0999 V2000
   -1.0142   -1.4575   -0.6109 N   0  0  0  0  0  0  0  0  0  0  0  0
   -2.1588   -0.8050   -0.3097 C   0  0  0  0  0  0  0  0  0  0  0  0
   -2.2213    0.5466   -0.0373 C   0  0  0  0  0  0  0  0  0  0  0  0
   -1.0308    1.2574   -0.0420 C   0  0  0  0  0  0  0  0  0  0  0  0
    0.1668    0.6149   -0.3019 C   0  0  0  0  0  0  0  0  0  0  0  0
    0.1338   -0.7711   -0.6150 C   0  0  0  0  0  0  0  0  0  0  0  0
    1.3050    1.3224   -0.2061 N   0  0  0  0  0  0  0  0  0  0  0  0
    2.4444    0.6251   -0.3990 C   0  0  0  0  0  0  0  0  0  0  0  0
    2.4243   -0.7099   -0.7820 C   0  0  0  0  0  0  0  0  0  0  0  0
    1.2741   -1.4169   -0.8918 N   0  0  0  0  0  0  0  0  0  0  0  0
    3.6221   -1.4635   -0.9905 C   0  0  0  0  0  0  0  0  0  0  0  0
    4.6645   -2.0478   -1.0888 C   0  0  0  0  0  0  0  0  0  0  0  0
    5.9455   -2.6850   -1.0751 C   0  0  0  0  0  0  0  0  0  0  0  0
    7.1016   -1.9047   -1.1420 C   0  0  0  0  0  0  0  0  0  0  0  0
    8.3565   -2.4967   -0.9947 C   0  0  0  0  0  0  0  0  0  0  0  0
    8.4568   -3.8727   -0.7918 C   0  0  0  0  0  0  0  0  0  0  0  0
    7.3048   -4.6596   -0.7573 C   0  0  0  0  0  0  0  0  0  0  0  0
    6.0474   -4.0676   -0.9031 C   0  0  0  0  0  0  0  0  0  0  0  0
    3.6429    1.2514   -0.1311 O   0  0  0  0  0  0  0  0  0  0  0  0
    3.4882    2.2983    0.8356 C   0  0  0  0  0  0  0  0  0  0  0  0
    4.8171    2.6110    1.5540 C   0  0  0  0  0  0  0  0  0  0  0  0
    5.9263    3.2154    0.8044 N   0  0  0  0  0  0  0  0  0  0  0  0
    5.5744    4.4419    0.0844 C   0  0  0  0  0  0  0  0  0  0  0  0
    5.5105    4.0428   -1.3757 C   0  0  0  0  0  0  0  0  0  0  0  0
    6.6217    3.0198   -1.4786 C   0  0  0  0  0  0  0  0  0  0  0  0
    6.5738    2.2962   -0.1412 C   0  0  0  0  0  0  0  0  0  0  0  0
   -3.0527   -1.4220   -0.2884 H   0  0  0  0  0  0  0  0  0  0  0  0
   -3.1647    1.0329    0.1861 H   0  0  0  0  0  0  0  0  0  0  0  0
   -1.0281    2.3206    0.1806 H   0  0  0  0  0  0  0  0  0  0  0  0
    7.0304   -0.8291   -1.2839 H   0  0  0  0  0  0  0  0  0  0  0  0
    9.2529   -1.8825   -1.0199 H   0  0  0  0  0  0  0  0  0  0  0  0
    9.4328   -4.3313   -0.6547 H   0  0  0  0  0  0  0  0  0  0  0  0
    7.3844   -5.7320   -0.5981 H   0  0  0  0  0  0  0  0  0  0  0  0
    5.1545   -4.6855   -0.8568 H   0  0  0  0  0  0  0  0  0  0  0  0
    3.0792    3.1920    0.3513 H   0  0  0  0  0  0  0  0  0  0  0  0
    2.7898    1.9833    1.6243 H   0  0  0  0  0  0  0  0  0  0  0  0
    4.5794    3.2964    2.3781 H   0  0  0  0  0  0  0  0  0  0  0  0
    5.1829    1.6929    2.0308 H   0  0  0  0  0  0  0  0  0  0  0  0
    6.3894    5.1627    0.2282 H   0  0  0  0  0  0  0  0  0  0  0  0
    4.6589    4.9285    0.4357 H   0  0  0  0  0  0  0  0  0  0  0  0
    4.5452    3.5806   -1.6123 H   0  0  0  0  0  0  0  0  0  0  0  0
    5.6604    4.8903   -2.0500 H   0  0  0  0  0  0  0  0  0  0  0  0
    6.4861    2.3433   -2.3271 H   0  0  0  0  0  0  0  0  0  0  0  0
    7.5859    3.5296   -1.5940 H   0  0  0  0  0  0  0  0  0  0  0  0
    6.0452    1.3447   -0.2490 H   0  0  0  0  0  0  0  0  0  0  0  0
    7.5851    2.0547    0.2029 H   0  0  0  0  0  0  0  0  0  0  0  0
  1  2  2  0  0  0  0
  2  3  1  0  0  0  0
  2 27  1  0  0  0  0
  3  4  2  0  0  0  0
  3 28  1  0  0  0  0
  4  5  1  0  0  0  0
  4 29  1  0  0  0  0
  5  6  2  0  0  0  0
  5  7  1  0  0  0  0
  6  1  1  0  0  0  0
  7  8  2  0  0  0  0
  8  9  1  0  0  0  0
  8 19  1  0  0  0  0
  9 10  2  0  0  0  0
  9 11  1  0  0  0  0
 10  6  1  0  0  0  0
 11 12  3  0  0  0  0
 12 13  1  0  0  0  0
 13 14  2  0  0  0  0
 14 15  1  0  0  0  0
 14 30  1  0  0  0  0
 15 16  2  0  0  0  0
 15 31  1  0  0  0  0
 16 17  1  0  0  0  0
 16 32  1  0  0  0  0
 17 18  2  0  0  0  0
 17 33  1  0  0  0  0
 18 13  1  0  0  0  0
 18 34  1  0  0  0  0
 19 20  1  0  0  0  0
 20 21  1  0  0  0  0
 20 35  1  0  0  0  0
 20 36  1  0  0  0  0
 21 22  1  0  0  0  0
 21 37  1  0  0  0  0
 21 38  1  0  0  0  0
 22 23  1  0  0  0  0
 23 24  1  0  0  0  0
 23 39  1  0  0  0  0
 23 40  1  0  0  0  0
 24 25  1  0  0  0  0
 24 41  1  0  0  0  0
 24 42  1  0  0  0  0
 25 26  1  0  0  0  0
 25 43  1  0  0  0  0
 25 44  1  0  0  0  0
 26 22  1  0  0  0  0
 26 45  1  0  0  0  0
 26 46  1  0  0  0  0
M  END
>  <Mol_ID>
3737

>  <Formula>
C21H20N4O

>  <MolWeight>
344.4097

>  <Cat>
S6417

>  <Name>
GK921

>  <Synonyms>
N/A

>  <Target>
Glutaminase

>  <Form>
Free Base

>  <CAS>
1025015-40-0

>  <URL>
http://www.selleck.cn/products/gk921.html

$$$$
