Glaucine
 OpenBabel08302521493D

 51 54  0  0  1  0  0  0  0  0999 V2000
    1.0780    0.0999    0.1289 O   0  0  0  0  0  0  0  0  0  0  0  0
    0.4754   -0.6045    1.2195 C   0  0  0  0  0  0  0  0  0  0  0  0
    2.4198    2.3907    0.3613 O   0  0  0  0  0  0  0  0  0  0  0  0
    3.1352    3.6220    0.3836 C   0  0  0  0  0  0  0  0  0  0  0  0
    7.5219   -3.6091   -0.0965 C   0  0  0  0  0  0  0  0  0  0  0  0
   -0.7638   -3.5913   -1.3850 O   0  0  0  0  0  0  0  0  0  0  0  0
   -1.8329   -4.4966   -1.2624 C   0  0  0  0  0  0  0  0  0  0  0  0
    0.4294   -6.1253    0.0583 O   0  0  0  0  0  0  0  0  0  0  0  0
   -0.1028   -6.9548   -0.9645 C   0  0  0  0  0  0  0  0  0  0  0  0
    3.1501   -1.2050   -0.1474 C   0  0  0  0  0  0  0  0  0  0  0  0
    4.5725   -1.1832   -0.0874 C   0  0  0  0  0  0  0  0  0  0  0  0
    2.4974   -2.5224   -0.3820 C   0  0  0  0  0  0  0  0  0  0  0  0
    2.4560    0.0142    0.0808 C   0  0  0  0  0  0  0  0  0  0  0  0
    5.3390   -2.5090   -0.2102 C   0  0  2  0  0  0  0  0  0  0  0  0
    5.2640    0.0329    0.0358 C   0  0  0  0  0  0  0  0  0  0  0  0
    3.1198   -3.6901    0.0736 C   0  0  0  0  0  0  0  0  0  0  0  0
    1.2599   -2.6707   -1.0041 C   0  0  0  0  0  0  0  0  0  0  0  0
    3.1608    1.2389    0.1985 C   0  0  0  0  0  0  0  0  0  0  0  0
    4.5472   -3.5979    0.5741 C   0  0  0  0  0  0  0  0  0  0  0  0
    6.7546   -2.4089    0.2492 N   0  0  0  0  0  0  0  0  0  0  0  0
    4.5560    1.2311    0.1694 C   0  0  0  0  0  0  0  0  0  0  0  0
    6.7673    0.0651    0.0946 C   0  0  0  0  0  0  0  0  0  0  0  0
    2.3991   -4.8990    0.1166 C   0  0  0  0  0  0  0  0  0  0  0  0
    0.4892   -3.8464   -0.9153 C   0  0  0  0  0  0  0  0  0  0  0  0
    7.4012   -1.2413   -0.3767 C   0  0  0  0  0  0  0  0  0  0  0  0
    1.0656   -4.9774   -0.3309 C   0  0  0  0  0  0  0  0  0  0  0  0
    0.1196   -1.5877    0.9041 H   0  0  0  0  0  0  0  0  0  0  0  0
    1.1301   -0.7125    2.0893 H   0  0  0  0  0  0  0  0  0  0  0  0
   -0.4244   -0.0582    1.5199 H   0  0  0  0  0  0  0  0  0  0  0  0
    3.7987    3.6786    1.2547 H   0  0  0  0  0  0  0  0  0  0  0  0
    3.6968    3.7741   -0.5462 H   0  0  0  0  0  0  0  0  0  0  0  0
    2.4122    4.4387    0.4687 H   0  0  0  0  0  0  0  0  0  0  0  0
    7.5216   -3.8018   -1.1755 H   0  0  0  0  0  0  0  0  0  0  0  0
    8.5627   -3.5039    0.2313 H   0  0  0  0  0  0  0  0  0  0  0  0
    7.1402   -4.4951    0.4174 H   0  0  0  0  0  0  0  0  0  0  0  0
   -1.7907   -5.2202   -2.0792 H   0  0  0  0  0  0  0  0  0  0  0  0
   -1.8936   -4.9634   -0.2767 H   0  0  0  0  0  0  0  0  0  0  0  0
   -2.7589   -3.9272   -1.4008 H   0  0  0  0  0  0  0  0  0  0  0  0
   -1.1901   -6.9876   -0.8469 H   0  0  0  0  0  0  0  0  0  0  0  0
    0.1646   -6.6442   -1.9781 H   0  0  0  0  0  0  0  0  0  0  0  0
    0.2407   -7.9809   -0.8011 H   0  0  0  0  0  0  0  0  0  0  0  0
    5.3343   -2.7607   -1.2819 H   0  0  0  0  0  0  0  0  0  0  0  0
    0.7906   -1.7923   -1.4566 H   0  0  0  0  0  0  0  0  0  0  0  0
    4.5330   -3.3681    1.6486 H   0  0  0  0  0  0  0  0  0  0  0  0
    5.0211   -4.5767    0.4458 H   0  0  0  0  0  0  0  0  0  0  0  0
    5.1286    2.1474    0.2739 H   0  0  0  0  0  0  0  0  0  0  0  0
    7.0698    0.2717    1.1292 H   0  0  0  0  0  0  0  0  0  0  0  0
    7.1450    0.8832   -0.5318 H   0  0  0  0  0  0  0  0  0  0  0  0
    2.8651   -5.7818    0.5524 H   0  0  0  0  0  0  0  0  0  0  0  0
    8.4655   -1.2056   -0.1092 H   0  0  0  0  0  0  0  0  0  0  0  0
    7.3501   -1.3107   -1.4720 H   0  0  0  0  0  0  0  0  0  0  0  0
  1  2  1  0  0  0  0
  1 13  1  0  0  0  0
  2 27  1  0  0  0  0
  2 28  1  0  0  0  0
  2 29  1  0  0  0  0
  3  4  1  0  0  0  0
  3 18  1  0  0  0  0
  4 30  1  0  0  0  0
  4 31  1  0  0  0  0
  4 32  1  0  0  0  0
  5 20  1  0  0  0  0
  5 33  1  0  0  0  0
  5 34  1  0  0  0  0
  5 35  1  0  0  0  0
  6  7  1  0  0  0  0
  6 24  1  0  0  0  0
  7 36  1  0  0  0  0
  7 37  1  0  0  0  0
  7 38  1  0  0  0  0
  8  9  1  0  0  0  0
  8 26  1  0  0  0  0
  9 39  1  0  0  0  0
  9 40  1  0  0  0  0
  9 41  1  0  0  0  0
 10 11  1  0  0  0  0
 10 12  1  0  0  0  0
 10 13  2  0  0  0  0
 11 14  1  0  0  0  0
 11 15  2  0  0  0  0
 12 16  2  0  0  0  0
 12 17  1  0  0  0  0
 13 18  1  0  0  0  0
 14 19  1  0  0  0  0
 14 20  1  0  0  0  0
 14 42  1  6  0  0  0
 15 21  1  0  0  0  0
 15 22  1  0  0  0  0
 16 19  1  0  0  0  0
 16 23  1  0  0  0  0
 17 24  2  0  0  0  0
 17 43  1  0  0  0  0
 18 21  2  0  0  0  0
 19 44  1  0  0  0  0
 19 45  1  0  0  0  0
 20 25  1  0  0  0  0
 21 46  1  0  0  0  0
 22 25  1  0  0  0  0
 22 47  1  0  0  0  0
 22 48  1  0  0  0  0
 23 26  2  0  0  0  0
 23 49  1  0  0  0  0
 24 26  1  0  0  0  0
 25 50  1  0  0  0  0
 25 51  1  0  0  0  0
M  END
>  <Mol_ID>
9825

>  <Formula>
C21H25NO4

>  <MolWeight>
355.4275

>  <Cat>
E2422

>  <Name>
Glaucine

>  <Synonyms>
S-(+)-Glaucine, d-Glaucine

>  <Target>
Adrenergic Receptor, cAMP, PDE, MMP, Calcium Channel, NF-¦ÊB

>  <Form>
free base

>  <CAS>
475-81-0

>  <URL>
https://www.selleckchem.com/products/glaucine.html

$$$$
