Gliclazide.cdx
 OpenBabel08302521453D

 43 45  0  0  0  0  0  0  0  0999 V2000
    0.2222   -3.8179    1.3991 C   0  0  0  0  0  0  0  0  0  0  0  0
    1.0317   -4.1093    0.2955 C   0  0  0  0  0  0  0  0  0  0  0  0
    0.7711   -3.5056   -0.9444 C   0  0  0  0  0  0  0  0  0  0  0  0
   -0.2878   -2.6142   -1.0735 C   0  0  0  0  0  0  0  0  0  0  0  0
   -1.0620   -2.3063    0.0437 C   0  0  0  0  0  0  0  0  0  0  0  0
   -0.8325   -2.9129    1.2816 C   0  0  0  0  0  0  0  0  0  0  0  0
    2.1895   -5.0550    0.4051 C   0  0  0  0  0  0  0  0  0  0  0  0
   -2.2710   -1.0324   -0.1236 S   0  0  0  0  0  0  0  0  0  0  0  0
   -3.2470   -1.6280   -1.3371 N   0  0  0  0  0  0  0  0  0  0  0  0
   -4.3397   -2.4683   -1.1214 C   0  0  0  0  0  0  0  0  0  0  0  0
   -4.9624   -2.8399   -2.3064 N   0  0  0  0  0  0  0  0  0  0  0  0
   -6.1242   -3.6703   -2.3379 N   0  0  0  0  0  0  0  0  0  0  0  0
   -4.6692   -2.8225   -0.0080 O   0  0  0  0  0  0  0  0  0  0  0  0
   -2.9979   -0.9159    1.1270 O   0  0  0  0  0  0  0  0  0  0  0  0
   -1.6039    0.1062   -0.6980 O   0  0  0  0  0  0  0  0  0  0  0  0
   -5.8812   -4.9925   -1.7194 C   0  0  0  0  0  0  0  0  0  0  0  0
   -5.1767   -5.8394   -2.7824 C   0  0  3  0  0  0  0  0  0  0  0  0
   -5.6672   -5.2536   -4.1119 C   0  0  3  0  0  0  0  0  0  0  0  0
   -6.5272   -4.0473   -3.7116 C   0  0  0  0  0  0  0  0  0  0  0  0
   -3.6482   -5.7349   -2.7777 C   0  0  0  0  0  0  0  0  0  0  0  0
   -3.2466   -4.8931   -3.9760 C   0  0  0  0  0  0  0  0  0  0  0  0
   -4.4224   -4.9285   -4.9357 C   0  0  0  0  0  0  0  0  0  0  0  0
    0.4155   -4.2803    2.3671 H   0  0  0  0  0  0  0  0  0  0  0  0
    1.4005   -3.7118   -1.8030 H   0  0  0  0  0  0  0  0  0  0  0  0
   -0.4791   -2.1387   -2.0312 H   0  0  0  0  0  0  0  0  0  0  0  0
   -1.4395   -2.6685    2.1452 H   0  0  0  0  0  0  0  0  0  0  0  0
    2.0643   -5.8754   -0.3086 H   0  0  0  0  0  0  0  0  0  0  0  0
    3.1246   -4.5279    0.1892 H   0  0  0  0  0  0  0  0  0  0  0  0
    2.2634   -5.4857    1.4088 H   0  0  0  0  0  0  0  0  0  0  0  0
   -3.2526   -1.0017   -2.1259 H   0  0  0  0  0  0  0  0  0  0  0  0
   -4.6671   -2.3949   -3.1617 H   0  0  0  0  0  0  0  0  0  0  0  0
   -5.3437   -4.9478   -0.7689 H   0  0  0  0  0  0  0  0  0  0  0  0
   -6.8583   -5.4422   -1.4953 H   0  0  0  0  0  0  0  0  0  0  0  0
   -5.4683   -6.8897   -2.6755 H   0  0  0  0  0  0  0  0  0  0  0  0
   -6.2905   -5.9703   -4.6602 H   0  0  0  0  0  0  0  0  0  0  0  0
   -7.5761   -4.3751   -3.6595 H   0  0  0  0  0  0  0  0  0  0  0  0
   -6.5093   -3.2325   -4.4414 H   0  0  0  0  0  0  0  0  0  0  0  0
   -3.2576   -5.3060   -1.8484 H   0  0  0  0  0  0  0  0  0  0  0  0
   -3.2075   -6.7343   -2.8719 H   0  0  0  0  0  0  0  0  0  0  0  0
   -3.0400   -3.8708   -3.6585 H   0  0  0  0  0  0  0  0  0  0  0  0
   -2.3238   -5.2528   -4.4456 H   0  0  0  0  0  0  0  0  0  0  0  0
   -4.5164   -3.9905   -5.4935 H   0  0  0  0  0  0  0  0  0  0  0  0
   -4.2577   -5.7235   -5.6729 H   0  0  0  0  0  0  0  0  0  0  0  0
  1  2  2  0  0  0  0
  1 23  1  0  0  0  0
  2  3  1  0  0  0  0
  2  7  1  0  0  0  0
  3  4  2  0  0  0  0
  3 24  1  0  0  0  0
  4  5  1  0  0  0  0
  4 25  1  0  0  0  0
  5  6  2  0  0  0  0
  5  8  1  0  0  0  0
  6  1  1  0  0  0  0
  6 26  1  0  0  0  0
  7 27  1  0  0  0  0
  7 28  1  0  0  0  0
  7 29  1  0  0  0  0
  8  9  1  0  0  0  0
  8 14  2  0  0  0  0
  8 15  2  0  0  0  0
  9 10  1  0  0  0  0
  9 30  1  0  0  0  0
 10 11  1  0  0  0  0
 10 13  2  0  0  0  0
 11 12  1  0  0  0  0
 11 31  1  0  0  0  0
 12 16  1  0  0  0  0
 16 17  1  0  0  0  0
 16 32  1  0  0  0  0
 16 33  1  0  0  0  0
 17 18  1  0  0  0  0
 17 20  1  0  0  0  0
 17 34  1  0  0  0  0
 18 19  1  0  0  0  0
 18 35  1  0  0  0  0
 19 12  1  0  0  0  0
 19 36  1  0  0  0  0
 19 37  1  0  0  0  0
 20 21  1  0  0  0  0
 20 38  1  0  0  0  0
 20 39  1  0  0  0  0
 21 22  1  0  0  0  0
 21 40  1  0  0  0  0
 21 41  1  0  0  0  0
 22 18  1  0  0  0  0
 22 42  1  0  0  0  0
 22 43  1  0  0  0  0
M  END
>  <Mol_ID>
950

>  <Formula>
C15H21N3O3S

>  <MolWeight>
323.41054

>  <Cat>
S2601

>  <Name>
Gliclazide

>  <Synonyms>
S1702, SE1702

>  <Target>
Potassium Channel

>  <Form>
free base

>  <CAS>
21187-98-4

>  <URL>
http://selleckchem.com/products/gliclazide-diamicron.html

$$$$
