GLN-1062
 OpenBabel08302521353D

 54 58  0  0  0  0  0  0  0  0999 V2000
    8.3682    8.2608   -1.6004 O   0  0  0  0  0  0  0  0  0  0  0  0
    8.0105    7.7663   -2.8959 C   0  0  0  0  0  0  0  0  0  0  0  0
    7.6898    0.2707    2.0209 O   0  0  0  0  0  0  0  0  0  0  0  0
    8.5784   -0.7468    2.2957 C   0  0  0  0  0  0  0  0  0  0  0  0
    9.2259   -1.2837    1.4077 O   0  0  0  0  0  0  0  0  0  0  0  0
    6.3454    4.4438    0.3840 C   0  0  1  0  0  0  0  0  0  0  0  0
    7.1766    5.6824    0.6068 C   0  0  0  0  0  0  0  0  0  0  0  0
    7.0423    3.7580   -0.9372 C   0  0  1  0  0  0  0  0  0  0  0  0
    6.9586    3.2834    0.8977 C   0  0  0  0  0  0  0  0  0  0  0  0
    7.7111    6.1073   -0.5865 C   0  0  0  0  0  0  0  0  0  0  0  0
    7.7841    6.0664    1.8279 C   0  0  0  0  0  0  0  0  0  0  0  0
    7.9875    4.9338   -1.4009 O   0  0  0  0  0  0  0  0  0  0  0  0
    7.8423    2.0137   -0.7306 C   0  0  0  0  0  0  0  0  0  0  0  0
    7.5410    2.2307    1.3818 C   0  0  0  0  0  0  0  0  0  0  0  0
    8.4365    7.3163   -0.5894 C   0  0  0  0  0  0  0  0  0  0  0  0
    8.7622    7.0606    1.8060 C   0  0  0  0  0  0  0  0  0  0  0  0
    7.2695    1.0062    0.6762 C   0  0  2  0  0  0  0  0  0  0  0  0
    9.0030    7.7639    0.6326 C   0  0  0  0  0  0  0  0  0  0  0  0
    8.8741   -1.2138    3.7625 C   0  0  0  0  0  0  0  0  0  0  0  0
    9.8563   -2.2065    4.0253 C   0  0  0  0  0  0  0  0  0  0  0  0
    8.3033   -0.6222    4.9000 C   0  0  0  0  0  0  0  0  0  0  0  0
   10.2255   -2.5455    5.3548 C   0  0  0  0  0  0  0  0  0  0  0  0
    8.5770   -1.0526    6.2234 C   0  0  0  0  0  0  0  0  0  0  0  0
    9.5578   -2.0047    6.4542 C   0  0  0  0  0  0  0  0  0  0  0  0
    7.7732    5.1933    3.0671 C   0  0  0  0  0  0  0  0  0  0  0  0
    6.4772    4.8157    3.6731 N   0  0  0  0  0  0  0  0  0  0  0  0
    5.5686    3.9555    2.8671 C   0  0  0  0  0  0  0  0  0  0  0  0
    5.1568    4.3877    1.3816 C   0  0  0  0  0  0  0  0  0  0  0  0
    6.8932    3.9665    4.8140 C   0  0  0  0  0  0  0  0  0  0  0  0
    8.7054    6.9940   -3.2462 H   0  0  0  0  0  0  0  0  0  0  0  0
    6.9825    7.3927   -2.9153 H   0  0  0  0  0  0  0  0  0  0  0  0
    8.0700    8.5850   -3.6287 H   0  0  0  0  0  0  0  0  0  0  0  0
    6.3913    3.6505   -1.8136 H   0  0  0  0  0  0  0  0  0  0  0  0
    7.7579    3.8665    1.2579 H   0  0  0  0  0  0  0  0  0  0  0  0
    8.9393    2.1189   -0.6674 H   0  0  0  0  0  0  0  0  0  0  0  0
    7.6016    1.4499   -1.6396 H   0  0  0  0  0  0  0  0  0  0  0  0
    8.5584    2.3992    1.7122 H   0  0  0  0  0  0  0  0  0  0  0  0
    9.3377    7.2831    2.7041 H   0  0  0  0  0  0  0  0  0  0  0  0
    6.2025    0.7835    0.5248 H   0  0  0  0  0  0  0  0  0  0  0  0
    9.6411    8.6404    0.7330 H   0  0  0  0  0  0  0  0  0  0  0  0
   10.3957   -2.6874    3.2056 H   0  0  0  0  0  0  0  0  0  0  0  0
    7.6345    0.2171    4.7915 H   0  0  0  0  0  0  0  0  0  0  0  0
   11.0570   -3.2235    5.5396 H   0  0  0  0  0  0  0  0  0  0  0  0
    8.0326   -0.6258    7.0685 H   0  0  0  0  0  0  0  0  0  0  0  0
    9.8162   -2.3024    7.4723 H   0  0  0  0  0  0  0  0  0  0  0  0
    8.3761    5.6951    3.8339 H   0  0  0  0  0  0  0  0  0  0  0  0
    8.4242    4.3242    2.8662 H   0  0  0  0  0  0  0  0  0  0  0  0
    6.0019    2.9491    2.8709 H   0  0  0  0  0  0  0  0  0  0  0  0
    4.6534    3.7452    3.4310 H   0  0  0  0  0  0  0  0  0  0  0  0
    4.3623    3.7123    1.0316 H   0  0  0  0  0  0  0  0  0  0  0  0
    4.6741    5.3716    1.4815 H   0  0  0  0  0  0  0  0  0  0  0  0
    7.6401    3.2544    4.4451 H   0  0  0  0  0  0  0  0  0  0  0  0
    7.3529    4.5489    5.6176 H   0  0  0  0  0  0  0  0  0  0  0  0
    6.0782    3.3672    5.2290 H   0  0  0  0  0  0  0  0  0  0  0  0
  1  2  1  0  0  0  0
  1 15  1  0  0  0  0
  2 30  1  0  0  0  0
  2 31  1  0  0  0  0
  2 32  1  0  0  0  0
  3  4  1  0  0  0  0
  4  5  2  0  0  0  0
  4 19  1  0  0  0  0
  6  7  1  1  0  0  0
  6  8  1  0  0  0  0
  6  9  1  0  0  0  0
  6 28  1  0  0  0  0
  7 10  2  0  0  0  0
  7 11  1  0  0  0  0
  8 12  1  0  0  0  0
  8 13  1  0  0  0  0
  8 33  1  6  0  0  0
  9 14  2  3  0  0  0
  9 34  1  0  0  0  0
 10 12  1  0  0  0  0
 10 15  1  0  0  0  0
 11 16  2  0  0  0  0
 11 25  1  0  0  0  0
 13 17  1  0  0  0  0
 13 35  1  0  0  0  0
 13 36  1  0  0  0  0
 14 17  1  0  0  0  0
 14 37  1  0  0  0  0
 15 18  2  0  0  0  0
 16 18  1  0  0  0  0
 16 38  1  0  0  0  0
 17  3  1  0  0  0  0
 17 39  1  6  0  0  0
 18 40  1  0  0  0  0
 19 20  2  0  0  0  0
 19 21  1  0  0  0  0
 20 22  1  0  0  0  0
 20 41  1  0  0  0  0
 21 23  2  0  0  0  0
 21 42  1  0  0  0  0
 22 24  2  0  0  0  0
 22 43  1  0  0  0  0
 23 24  1  0  0  0  0
 23 44  1  0  0  0  0
 24 45  1  0  0  0  0
 25 26  1  0  0  0  0
 25 46  1  0  0  0  0
 25 47  1  0  0  0  0
 26 27  1  0  0  0  0
 26 29  1  0  0  0  0
 27 28  1  0  0  0  0
 27 48  1  0  0  0  0
 27 49  1  0  0  0  0
 28 50  1  0  0  0  0
 28 51  1  0  0  0  0
 29 52  1  0  0  0  0
 29 53  1  0  0  0  0
 29 54  1  0  0  0  0
M  END
>  <Mol_ID>
6842

>  <Formula>
C24H25NO4

>  <MolWeight>
391.4596

>  <Cat>
E2227

>  <Name>
GLN-1062

>  <Synonyms>
Memogain

>  <Target>
Others

>  <Form>
Free base

>  <CAS>
224169-27-1

>  <URL>
http://www.selleckchem.com/products/gln-1062.html

$$$$
