Glucosamine
 OpenBabel08302520403D

 25 24  0  0  0  0  0  0  0  0999 V2000
    1.0502   -0.1545    0.0428 C   0  0  1  0  0  0  0  0  0  0  0  0
    0.2670    1.1326   -0.3214 C   0  0  1  0  0  0  0  0  0  0  0  0
    2.5458    0.0062    0.4343 C   0  0  2  0  0  0  0  0  0  0  0  0
    0.3808   -0.8828    1.0787 O   0  0  0  0  0  0  0  0  0  0  0  0
   -1.0956    0.8349   -0.9946 C   0  0  1  0  0  0  0  0  0  0  0  0
   -0.0141    1.9708    0.8107 O   0  0  0  0  0  0  0  0  0  0  0  0
    2.7368    0.5629    1.8377 C   0  0  0  0  0  0  0  0  0  0  0  0
    3.3426    0.8020   -0.5135 N   0  0  0  0  0  0  0  0  0  0  0  0
   -2.1944    0.3381   -0.0412 C   0  0  0  0  0  0  0  0  0  0  0  0
   -1.5912    2.0662   -1.5734 O   0  0  0  0  0  0  0  0  0  0  0  0
    1.9756    1.3735    2.3599 O   0  0  0  0  0  0  0  0  0  0  0  0
   -3.4198    0.1913   -0.7653 O   0  0  0  0  0  0  0  0  0  0  0  0
    1.0374   -0.8004   -0.8455 H   0  0  0  0  0  0  0  0  0  0  0  0
    0.8564    1.7376   -1.0199 H   0  0  0  0  0  0  0  0  0  0  0  0
    2.9716   -1.0049    0.4745 H   0  0  0  0  0  0  0  0  0  0  0  0
    0.0863   -0.2312    1.7453 H   0  0  0  0  0  0  0  0  0  0  0  0
   -0.9774    0.1367   -1.8299 H   0  0  0  0  0  0  0  0  0  0  0  0
    0.7583    1.9825    1.4152 H   0  0  0  0  0  0  0  0  0  0  0  0
    3.6637    0.2495    2.3513 H   0  0  0  0  0  0  0  0  0  0  0  0
    4.3363    0.7177   -0.2988 H   0  0  0  0  0  0  0  0  0  0  0  0
    3.1201    1.7959   -0.4188 H   0  0  0  0  0  0  0  0  0  0  0  0
   -1.9566   -0.6282    0.4057 H   0  0  0  0  0  0  0  0  0  0  0  0
   -2.3862    1.0616    0.7572 H   0  0  0  0  0  0  0  0  0  0  0  0
   -1.5061    2.7353   -0.8634 H   0  0  0  0  0  0  0  0  0  0  0  0
   -3.4528    0.9582   -1.3707 H   0  0  0  0  0  0  0  0  0  0  0  0
  1  4  1  0  0  0  0
  1 13  1  6  0  0  0
  1  3  1  0  0  0  0
  1  2  1  0  0  0  0
  2  5  1  0  0  0  0
  2  6  1  0  0  0  0
  2 14  1  6  0  0  0
  3 15  1  1  0  0  0
  3  8  1  0  0  0  0
  3  7  1  0  0  0  0
  4 16  1  0  0  0  0
  5  9  1  0  0  0  0
  5 10  1  0  0  0  0
  5 17  1  6  0  0  0
  6 18  1  0  0  0  0
  7 11  2  0  0  0  0
  7 19  1  0  0  0  0
  8 20  1  0  0  0  0
  8 21  1  0  0  0  0
  9 12  1  0  0  0  0
  9 22  1  0  0  0  0
  9 23  1  0  0  0  0
 10 24  1  0  0  0  0
 12 25  1  0  0  0  0
M  END
>  <Mol_ID>
3723

>  <Formula>
C6H13NO5

>  <MolWeight>
179.17112

>  <Cat>
S6400

>  <Name>
Glucosamine

>  <Synonyms>
2-amino-2-deoxy-D-glucose

>  <Target>
HIF

>  <Form>
Free Base

>  <CAS>
3416-24-8

>  <URL>
http://www.selleck.cn/products/glucosamine.html

$$$$
