GLX351322
 OpenBabel08302521243D

 55 58  0  0  0  0  0  0  0  0999 V2000
    1.6546    0.9064    2.3405 S   0  0  0  0  0  0  0  0  0  0  0  0
    5.2478    1.1459    0.0344 O   0  0  0  0  0  0  0  0  0  0  0  0
    0.3549   -3.3306    0.4027 O   0  0  0  0  0  0  0  0  0  0  0  0
    5.8791    7.0901    2.4852 O   0  0  0  0  0  0  0  0  0  0  0  0
    4.0697    8.2277   -0.3274 O   0  0  0  0  0  0  0  0  0  0  0  0
    2.5371   -2.8716   -0.1599 O   0  0  0  0  0  0  0  0  0  0  0  0
    2.9049    3.2833    1.2544 N   0  0  0  0  0  0  0  0  0  0  0  0
    4.3252    5.8463    1.3676 N   0  0  0  0  0  0  0  0  0  0  0  0
    3.3960   -0.0069    0.5592 N   0  0  0  0  0  0  0  0  0  0  0  0
    2.2293    4.5539    0.9461 C   0  0  0  0  0  0  0  0  0  0  0  0
    3.9943    3.5209    2.2107 C   0  0  0  0  0  0  0  0  0  0  0  0
    0.0095   -0.8398    1.6083 C   0  0  0  0  0  0  0  0  0  0  0  0
   -1.3919   -1.3231    1.6815 C   0  0  0  0  0  0  0  0  0  0  0  0
   -2.1762    0.0068    1.9273 C   0  0  0  0  0  0  0  0  0  0  0  0
    3.1678    5.6848    0.4804 C   0  0  0  0  0  0  0  0  0  0  0  0
    4.9850    4.6055    1.7849 C   0  0  0  0  0  0  0  0  0  0  0  0
   -1.1769    1.0111    2.5722 C   0  0  0  0  0  0  0  0  0  0  0  0
    0.0983    0.3930    2.1812 C   0  0  0  0  0  0  0  0  0  0  0  0
    3.2711    2.5206    0.0476 C   0  0  0  0  0  0  0  0  0  0  0  0
    1.2505   -1.2714    1.0338 C   0  0  0  0  0  0  0  0  0  0  0  0
    2.1537   -0.2035    1.1255 C   0  0  0  0  0  0  0  0  0  0  0  0
    4.0330    1.1855    0.2754 C   0  0  0  0  0  0  0  0  0  0  0  0
    4.9791    7.0536    1.6421 C   0  0  0  0  0  0  0  0  0  0  0  0
    1.4743   -2.5437    0.3530 C   0  0  0  0  0  0  0  0  0  0  0  0
    4.5953    8.2661    0.9402 C   0  0  0  0  0  0  0  0  0  0  0  0
    4.7694    9.5888    1.3111 C   0  0  0  0  0  0  0  0  0  0  0  0
    0.4252   -4.6557   -0.1245 C   0  0  0  0  0  0  0  0  0  0  0  0
    4.3079   10.3872    0.2407 C   0  0  0  0  0  0  0  0  0  0  0  0
    3.8979    9.5099   -0.7306 C   0  0  0  0  0  0  0  0  0  0  0  0
    0.1550   -4.6573   -1.6158 C   0  0  0  0  0  0  0  0  0  0  0  0
    3.9066   -0.8316    0.2598 H   0  0  0  0  0  0  0  0  0  0  0  0
    1.4244    4.4021    0.2155 H   0  0  0  0  0  0  0  0  0  0  0  0
    1.7229    4.8905    1.8631 H   0  0  0  0  0  0  0  0  0  0  0  0
    3.5298    3.8321    3.1584 H   0  0  0  0  0  0  0  0  0  0  0  0
    4.5247    2.5933    2.4488 H   0  0  0  0  0  0  0  0  0  0  0  0
   -1.5138   -2.0005    2.5338 H   0  0  0  0  0  0  0  0  0  0  0  0
   -1.7298   -1.8140    0.7668 H   0  0  0  0  0  0  0  0  0  0  0  0
   -2.4962    0.4048    0.9544 H   0  0  0  0  0  0  0  0  0  0  0  0
   -3.0694   -0.1368    2.5393 H   0  0  0  0  0  0  0  0  0  0  0  0
    3.5493    5.4774   -0.5262 H   0  0  0  0  0  0  0  0  0  0  0  0
    2.5814    6.6055    0.4444 H   0  0  0  0  0  0  0  0  0  0  0  0
    5.5828    4.2589    0.9338 H   0  0  0  0  0  0  0  0  0  0  0  0
    5.6755    4.7906    2.6146 H   0  0  0  0  0  0  0  0  0  0  0  0
   -1.2900    2.0072    2.1299 H   0  0  0  0  0  0  0  0  0  0  0  0
   -1.2915    1.0711    3.6565 H   0  0  0  0  0  0  0  0  0  0  0  0
    3.9052    3.1328   -0.6060 H   0  0  0  0  0  0  0  0  0  0  0  0
    2.3694    2.2889   -0.5339 H   0  0  0  0  0  0  0  0  0  0  0  0
    5.1964    9.9195    2.2528 H   0  0  0  0  0  0  0  0  0  0  0  0
    1.3730   -5.1351    0.1259 H   0  0  0  0  0  0  0  0  0  0  0  0
   -0.3701   -5.2345    0.3768 H   0  0  0  0  0  0  0  0  0  0  0  0
    4.3018   11.4659    0.1783 H   0  0  0  0  0  0  0  0  0  0  0  0
    3.4852    9.6369   -1.7251 H   0  0  0  0  0  0  0  0  0  0  0  0
    0.8518   -3.9961   -2.1390 H   0  0  0  0  0  0  0  0  0  0  0  0
    0.2466   -5.6670   -2.0259 H   0  0  0  0  0  0  0  0  0  0  0  0
   -0.8549   -4.2884   -1.8262 H   0  0  0  0  0  0  0  0  0  0  0  0
  1 18  1  0  0  0  0
  1 21  1  0  0  0  0
  2 22  2  0  0  0  0
  3 24  1  0  0  0  0
  3 27  1  0  0  0  0
  4 23  2  0  0  0  0
  5 25  1  0  0  0  0
  5 29  1  0  0  0  0
  6 24  2  0  0  0  0
  7 10  1  0  0  0  0
  7 11  1  0  0  0  0
  7 19  1  0  0  0  0
  8 15  1  0  0  0  0
  8 16  1  0  0  0  0
  8 23  1  0  0  0  0
  9 21  1  0  0  0  0
  9 22  1  0  0  0  0
  9 31  1  0  0  0  0
 10 15  1  0  0  0  0
 10 32  1  0  0  0  0
 10 33  1  0  0  0  0
 11 16  1  0  0  0  0
 11 34  1  0  0  0  0
 11 35  1  0  0  0  0
 12 13  1  0  0  0  0
 12 18  2  0  0  0  0
 12 20  1  0  0  0  0
 13 14  1  0  0  0  0
 13 36  1  0  0  0  0
 13 37  1  0  0  0  0
 14 17  1  0  0  0  0
 14 38  1  0  0  0  0
 14 39  1  0  0  0  0
 15 40  1  0  0  0  0
 15 41  1  0  0  0  0
 16 42  1  0  0  0  0
 16 43  1  0  0  0  0
 17 18  1  0  0  0  0
 17 44  1  0  0  0  0
 17 45  1  0  0  0  0
 19 22  1  0  0  0  0
 19 46  1  0  0  0  0
 19 47  1  0  0  0  0
 20 21  2  0  0  0  0
 20 24  1  0  0  0  0
 23 25  1  0  0  0  0
 25 26  2  0  0  0  0
 26 28  1  0  0  0  0
 26 48  1  0  0  0  0
 27 30  1  0  0  0  0
 27 49  1  0  0  0  0
 27 50  1  0  0  0  0
 28 29  2  0  0  0  0
 28 51  1  0  0  0  0
 29 52  1  0  0  0  0
 30 53  1  0  0  0  0
 30 54  1  0  0  0  0
 30 55  1  0  0  0  0
M  END
>  <Mol_ID>
5048

>  <Formula>
C21H25N3O5S

>  <MolWeight>
431.5053

>  <Cat>
S0178

>  <Name>
GLX351322

>  <Synonyms>
N/A

>  <Target>
NADPH-oxidase

>  <Form>
free base

>  <CAS>
835598-94-2

>  <URL>
http://www.selleckchem.com/products/glx351322.html

$$$$
