Gly-Phe ¦Â-naphthylamide
 OpenBabel08302521313D

 47 49  0  0  0  0  0  0  0  0999 V2000
    3.3177    0.8467   -0.6567 O   0  0  0  0  0  0  0  0  0  0  0  0
    2.2893   -2.0552    4.0972 O   0  0  0  0  0  0  0  0  0  0  0  0
    2.6153   -1.6931    1.9450 N   0  0  0  0  0  0  0  0  0  0  0  0
    2.0910    0.7750    1.3030 N   0  0  0  0  0  0  0  0  0  0  0  0
    4.0399   -0.1357    4.9314 N   0  0  0  0  0  0  0  0  0  0  0  0
    3.2802   -1.2505    0.6751 C   0  0  1  0  0  0  0  0  0  0  0  0
    2.8206   -2.2498   -0.4028 C   0  0  0  0  0  0  0  0  0  0  0  0
    3.2914   -2.0685   -1.8204 C   0  0  0  0  0  0  0  0  0  0  0  0
    2.9104    0.2459    0.3329 C   0  0  0  0  0  0  0  0  0  0  0  0
    1.3841    1.9755    1.3423 C   0  0  0  0  0  0  0  0  0  0  0  0
    0.6335    4.1942    0.6512 C   0  0  0  0  0  0  0  0  0  0  0  0
   -0.5468    3.9601    1.3778 C   0  0  0  0  0  0  0  0  0  0  0  0
    1.5273    3.0991    0.5170 C   0  0  0  0  0  0  0  0  0  0  0  0
    4.6316   -2.2604   -2.1726 C   0  0  0  0  0  0  0  0  0  0  0  0
    2.3605   -1.7612   -2.8218 C   0  0  0  0  0  0  0  0  0  0  0  0
    0.4023    1.9889    2.3362 C   0  0  0  0  0  0  0  0  0  0  0  0
    2.9934   -1.5765    3.2413 C   0  0  0  0  0  0  0  0  0  0  0  0
   -0.6227    2.9198    2.2841 C   0  0  0  0  0  0  0  0  0  0  0  0
    0.8402    5.5136    0.2179 C   0  0  0  0  0  0  0  0  0  0  0  0
    5.0306   -2.1371   -3.5055 C   0  0  0  0  0  0  0  0  0  0  0  0
    2.7599   -1.6412   -4.1518 C   0  0  0  0  0  0  0  0  0  0  0  0
   -1.5792    4.8599    1.2903 C   0  0  0  0  0  0  0  0  0  0  0  0
    4.2437   -0.7628    3.6179 C   0  0  0  0  0  0  0  0  0  0  0  0
    4.0963   -1.8274   -4.4937 C   0  0  0  0  0  0  0  0  0  0  0  0
   -0.0583    6.5316    0.5911 C   0  0  0  0  0  0  0  0  0  0  0  0
   -1.3084    6.2011    1.1188 C   0  0  0  0  0  0  0  0  0  0  0  0
    1.7562   -2.2173    1.8587 H   0  0  0  0  0  0  0  0  0  0  0  0
    1.8398    0.1147    2.0197 H   0  0  0  0  0  0  0  0  0  0  0  0
    4.7815   -0.4328    5.5612 H   0  0  0  0  0  0  0  0  0  0  0  0
    3.1902   -0.5410    5.3430 H   0  0  0  0  0  0  0  0  0  0  0  0
    4.3620   -1.2934    0.8308 H   0  0  0  0  0  0  0  0  0  0  0  0
    3.1209   -3.2643   -0.0893 H   0  0  0  0  0  0  0  0  0  0  0  0
    1.7207   -2.2846   -0.4028 H   0  0  0  0  0  0  0  0  0  0  0  0
    2.3529    3.1573   -0.1974 H   0  0  0  0  0  0  0  0  0  0  0  0
    5.3739   -2.5199   -1.4222 H   0  0  0  0  0  0  0  0  0  0  0  0
    1.3100   -1.6164   -2.5772 H   0  0  0  0  0  0  0  0  0  0  0  0
    0.3722    1.2282    3.1173 H   0  0  0  0  0  0  0  0  0  0  0  0
   -1.4240    2.8745    3.0247 H   0  0  0  0  0  0  0  0  0  0  0  0
    1.7559    5.7881   -0.2946 H   0  0  0  0  0  0  0  0  0  0  0  0
    6.0722   -2.2849   -3.7776 H   0  0  0  0  0  0  0  0  0  0  0  0
    2.0278   -1.4009   -4.9183 H   0  0  0  0  0  0  0  0  0  0  0  0
   -2.5416    4.5074    0.8985 H   0  0  0  0  0  0  0  0  0  0  0  0
    5.0962   -1.4521    3.6469 H   0  0  0  0  0  0  0  0  0  0  0  0
    4.4459    0.0317    2.8726 H   0  0  0  0  0  0  0  0  0  0  0  0
    4.4085   -1.7291   -5.5296 H   0  0  0  0  0  0  0  0  0  0  0  0
    0.1797    7.5817    0.4235 H   0  0  0  0  0  0  0  0  0  0  0  0
   -2.0510    6.9521    1.3373 H   0  0  0  0  0  0  0  0  0  0  0  0
  1  9  2  0  0  0  0
  2 17  2  0  0  0  0
  3 17  1  0  0  0  0
  3 27  1  0  0  0  0
  4  9  1  0  0  0  0
  4 10  1  0  0  0  0
  4 28  1  0  0  0  0
  5 23  1  0  0  0  0
  5 29  1  0  0  0  0
  5 30  1  0  0  0  0
  6  3  1  0  0  0  0
  6  7  1  0  0  0  0
  6  9  1  0  0  0  0
  6 31  1  1  0  0  0
  7  8  1  0  0  0  0
  7 32  1  0  0  0  0
  7 33  1  0  0  0  0
  8 14  2  0  0  0  0
  8 15  1  0  0  0  0
 10 13  2  0  0  0  0
 10 16  1  0  0  0  0
 11 12  2  0  0  0  0
 11 13  1  0  0  0  0
 11 19  1  0  0  0  0
 12 18  1  0  0  0  0
 12 22  1  0  0  0  0
 13 34  1  0  0  0  0
 14 20  1  0  0  0  0
 14 35  1  0  0  0  0
 15 21  2  0  0  0  0
 15 36  1  0  0  0  0
 16 18  2  0  0  0  0
 16 37  1  0  0  0  0
 17 23  1  0  0  0  0
 18 38  1  0  0  0  0
 19 25  2  0  0  0  0
 19 39  1  0  0  0  0
 20 24  2  0  0  0  0
 20 40  1  0  0  0  0
 21 24  1  0  0  0  0
 21 41  1  0  0  0  0
 22 26  2  0  0  0  0
 22 42  1  0  0  0  0
 23 43  1  0  0  0  0
 23 44  1  0  0  0  0
 24 45  1  0  0  0  0
 25 26  1  0  0  0  0
 25 46  1  0  0  0  0
 26 47  1  0  0  0  0
M  END
>  <Mol_ID>
6021

>  <Formula>
C21H21N3O2

>  <MolWeight>
347.41034

>  <Cat>
S6846

>  <Name>
Gly-Phe ¦Â-naphthylamide

>  <Synonyms>
Gly-Phe beta-naphthylamide

>  <Target>
Caspase

>  <Form>
Free Base

>  <CAS>
21438-66-4

>  <URL>
http://www.selleckchem.com/products/gly-phe-b-naphthylamide.html

$$$$
