Glycodeoxycholic acid sodium salt
 OpenBabel08302520393D

 74 77  0  0  0  0  0  0  0  0999 V2000
    1.8211   -0.6189   -0.7799 C   0  0  1  0  0  0  0  0  0  0  0  0
    0.5800   -1.0807    0.0293 C   0  0  1  0  0  0  0  0  0  0  0  0
    2.7071    0.3313    0.0839 C   0  0  1  0  0  0  0  0  0  0  0  0
    2.8162   -1.6493   -1.3063 C   0  0  0  0  0  0  0  0  0  0  0  0
   -0.3061    0.1677    0.3394 C   0  0  1  0  0  0  0  0  0  0  0  0
   -0.2113   -2.2084   -0.6426 C   0  0  0  0  0  0  0  0  0  0  0  0
    3.9657    0.5329   -0.8374 C   0  0  2  0  0  0  0  0  0  0  0  0
    1.8646    1.6046    0.3478 C   0  0  2  0  0  0  0  0  0  0  0  0
    3.1041   -0.3843    1.4106 C   0  0  0  0  0  0  0  0  0  0  0  0
    4.1531   -0.8834   -1.4508 C   0  0  0  0  0  0  0  0  0  0  0  0
   -1.6169   -0.1862    1.1395 C   0  0  2  0  0  0  0  0  0  0  0  0
    0.5120    1.3021    1.0091 C   0  0  0  0  0  0  0  0  0  0  0  0
   -1.4731   -2.5552    0.1515 C   0  0  0  0  0  0  0  0  0  0  0  0
    5.2818    1.1248   -0.1765 C   0  0  1  0  0  0  0  0  0  0  0  0
    1.6214    2.3521   -0.8492 O   0  0  0  0  0  0  0  0  0  0  0  0
   -2.3768   -1.3372    0.4057 C   0  0  2  0  0  0  0  0  0  0  0  0
   -2.5706    1.0414    1.2665 C   0  0  0  0  0  0  0  0  0  0  0  0
   -1.2919   -0.6242    2.5940 C   0  0  0  0  0  0  0  0  0  0  0  0
    6.4250    1.4037   -1.1946 C   0  0  0  0  0  0  0  0  0  0  0  0
    4.9859    2.3912    0.6398 C   0  0  0  0  0  0  0  0  0  0  0  0
   -3.0121   -0.8692   -0.9184 C   0  0  0  0  0  0  0  0  0  0  0  0
   -3.1564    1.5003   -0.0630 C   0  0  0  0  0  0  0  0  0  0  0  0
    7.8219    1.6777   -0.5630 C   0  0  0  0  0  0  0  0  0  0  0  0
   -3.8992    0.3589   -0.7455 C   0  0  1  0  0  0  0  0  0  0  0  0
    8.9172    1.7484   -1.6230 C   0  0  0  0  0  0  0  0  0  0  0  0
   -4.3644    0.7880   -2.0212 O   0  0  0  0  0  0  0  0  0  0  0  0
   10.1674    2.0826   -1.1776 N   0  0  0  0  0  0  0  0  0  0  0  0
    8.6903    1.4503   -2.7982 O   0  0  0  0  0  0  0  0  0  0  0  0
   11.3483    2.0789   -2.0648 C   0  0  0  0  0  0  0  0  0  0  0  0
   12.5409    2.9206   -1.5581 C   0  0  0  0  0  0  0  0  0  0  0  0
   12.3596    3.4635   -0.4251 O   0  0  0  0  0  0  0  0  0  0  0  0
   13.5514    2.9670   -2.3234 O   0  5  0  0  0  0  0  0  0  0  0  0
    1.4528   -0.0972   -1.6757 H   0  0  0  0  0  0  0  0  0  0  0  0
    0.9101   -1.4976    0.9851 H   0  0  0  0  0  0  0  0  0  0  0  0
    2.9315   -2.4941   -0.6194 H   0  0  0  0  0  0  0  0  0  0  0  0
    2.4908   -2.0639   -2.2676 H   0  0  0  0  0  0  0  0  0  0  0  0
   -0.6170    0.5614   -0.6392 H   0  0  0  0  0  0  0  0  0  0  0  0
    0.4123   -3.1086   -0.7051 H   0  0  0  0  0  0  0  0  0  0  0  0
   -0.4685   -1.9416   -1.6732 H   0  0  0  0  0  0  0  0  0  0  0  0
    3.6910    1.2029   -1.6649 H   0  0  0  0  0  0  0  0  0  0  0  0
    2.3965    2.2823    1.0151 H   0  0  0  0  0  0  0  0  0  0  0  0
    3.0163   -1.4753    1.3434 H   0  0  0  0  0  0  0  0  0  0  0  0
    4.1329   -0.1996    1.7158 H   0  0  0  0  0  0  0  0  0  0  0  0
    2.4817   -0.0742    2.2517 H   0  0  0  0  0  0  0  0  0  0  0  0
    4.9461   -1.4409   -0.9415 H   0  0  0  0  0  0  0  0  0  0  0  0
    4.4332   -0.8055   -2.5079 H   0  0  0  0  0  0  0  0  0  0  0  0
   -0.0799    2.2239    0.9962 H   0  0  0  0  0  0  0  0  0  0  0  0
    0.6926    1.0577    2.0638 H   0  0  0  0  0  0  0  0  0  0  0  0
   -1.1824   -3.0033    1.1105 H   0  0  0  0  0  0  0  0  0  0  0  0
   -2.0370   -3.3335   -0.3787 H   0  0  0  0  0  0  0  0  0  0  0  0
    5.6847    0.3725    0.5105 H   0  0  0  0  0  0  0  0  0  0  0  0
    1.0307    1.8491   -1.4320 H   0  0  0  0  0  0  0  0  0  0  0  0
   -3.2013   -1.6703    1.0528 H   0  0  0  0  0  0  0  0  0  0  0  0
   -2.0684    1.8848    1.7525 H   0  0  0  0  0  0  0  0  0  0  0  0
   -3.4059    0.7812    1.9315 H   0  0  0  0  0  0  0  0  0  0  0  0
   -0.5589   -1.4330    2.6404 H   0  0  0  0  0  0  0  0  0  0  0  0
   -0.9018    0.2081    3.1896 H   0  0  0  0  0  0  0  0  0  0  0  0
   -2.1949   -0.9719    3.1091 H   0  0  0  0  0  0  0  0  0  0  0  0
    6.5191    0.5339   -1.8556 H   0  0  0  0  0  0  0  0  0  0  0  0
    6.1539    2.2537   -1.8336 H   0  0  0  0  0  0  0  0  0  0  0  0
    4.5115    2.1326    1.5920 H   0  0  0  0  0  0  0  0  0  0  0  0
    5.8874    2.9511    0.8990 H   0  0  0  0  0  0  0  0  0  0  0  0
    4.3275    3.0757    0.0951 H   0  0  0  0  0  0  0  0  0  0  0  0
   -3.6066   -1.6827   -1.3530 H   0  0  0  0  0  0  0  0  0  0  0  0
   -2.2464   -0.6469   -1.6698 H   0  0  0  0  0  0  0  0  0  0  0  0
   -2.3739    1.8988   -0.7196 H   0  0  0  0  0  0  0  0  0  0  0  0
   -3.8444    2.3384    0.1014 H   0  0  0  0  0  0  0  0  0  0  0  0
    7.8307    2.6099    0.0108 H   0  0  0  0  0  0  0  0  0  0  0  0
    8.0833    0.8557    0.1145 H   0  0  0  0  0  0  0  0  0  0  0  0
   -4.7808    0.0906   -0.1519 H   0  0  0  0  0  0  0  0  0  0  0  0
   -3.5868    0.9903   -2.5698 H   0  0  0  0  0  0  0  0  0  0  0  0
   10.3279    2.5960   -0.3115 H   0  0  0  0  0  0  0  0  0  0  0  0
   11.6780    1.0368   -2.1468 H   0  0  0  0  0  0  0  0  0  0  0  0
   11.0547    2.4309   -3.0534 H   0  0  0  0  0  0  0  0  0  0  0  0
  1  2  1  0  0  0  0
  1  3  1  0  0  0  0
  1  4  1  0  0  0  0
  1 33  1  6  0  0  0
  2  5  1  0  0  0  0
  2  6  1  0  0  0  0
  2 34  1  1  0  0  0
  3  7  1  0  0  0  0
  3  8  1  0  0  0  0
  3  9  1  1  0  0  0
  4 10  1  0  0  0  0
  4 35  1  0  0  0  0
  4 36  1  0  0  0  0
  5 11  1  0  0  0  0
  5 12  1  0  0  0  0
  5 37  1  6  0  0  0
  6 13  1  0  0  0  0
  6 38  1  0  0  0  0
  6 39  1  0  0  0  0
  7 10  1  0  0  0  0
  7 40  1  6  0  0  0
  7 14  1  0  0  0  0
  8 15  1  0  0  0  0
  8 12  1  0  0  0  0
  8 41  1  1  0  0  0
  9 42  1  0  0  0  0
  9 43  1  0  0  0  0
  9 44  1  0  0  0  0
 10 45  1  0  0  0  0
 10 46  1  0  0  0  0
 11 16  1  0  0  0  0
 11 17  1  0  0  0  0
 11 18  1  1  0  0  0
 12 47  1  0  0  0  0
 12 48  1  0  0  0  0
 13 49  1  0  0  0  0
 13 50  1  0  0  0  0
 14 19  1  0  0  0  0
 14 20  1  0  0  0  0
 14 51  1  1  0  0  0
 15 52  1  0  0  0  0
 16 13  1  0  0  0  0
 16 21  1  0  0  0  0
 16 53  1  1  0  0  0
 17 22  1  0  0  0  0
 17 54  1  0  0  0  0
 17 55  1  0  0  0  0
 18 56  1  0  0  0  0
 18 57  1  0  0  0  0
 18 58  1  0  0  0  0
 19 23  1  0  0  0  0
 19 59  1  0  0  0  0
 19 60  1  0  0  0  0
 20 61  1  0  0  0  0
 20 62  1  0  0  0  0
 20 63  1  0  0  0  0
 21 24  1  0  0  0  0
 21 64  1  0  0  0  0
 21 65  1  0  0  0  0
 22 24  1  0  0  0  0
 22 66  1  0  0  0  0
 22 67  1  0  0  0  0
 23 25  1  0  0  0  0
 23 68  1  0  0  0  0
 23 69  1  0  0  0  0
 24 26  1  0  0  0  0
 24 70  1  1  0  0  0
 25 27  1  0  0  0  0
 25 28  2  0  0  0  0
 26 71  1  0  0  0  0
 27 29  1  0  0  0  0
 27 72  1  0  0  0  0
 29 30  1  0  0  0  0
 29 73  1  0  0  0  0
 29 74  1  0  0  0  0
 30 31  2  0  0  0  0
 30 32  1  0  0  0  0
M  CHG  1  32  -1
M  END
>  <Mol_ID>
3557

>  <Formula>
C26H42NNaO5

>  <MolWeight>
471.60515

>  <Cat>
S6091

>  <Name>
Glycodeoxycholic acid sodium salt

>  <Synonyms>
Glycodeoxycholate sodium salt, Deoxycholylglycine sodium salt

>  <Target>
Others

>  <Form>
sodium salt

>  <CAS>
16409-34-0

>  <URL>
http://www.selleck.cn/products/glycodeoxycholic-acid-sodium-salt.html

$$$$
