Glycochenodeoxycholic acid
 OpenBabel08302520353D

 75 78  0  0  0  0  0  0  0  0999 V2000
   11.2861   -3.3620    3.4841 C   0  0  0  0  0  0  0  0  0  0  0  0
   10.0123   -2.6408    1.4946 N   0  0  0  0  0  0  0  0  0  0  0  0
   10.2132   -2.4169    2.9256 C   0  0  0  0  0  0  0  0  0  0  0  0
   11.7450   -4.2866    2.8571 O   0  0  0  0  0  0  0  0  0  0  0  0
   11.6143   -3.0863    4.7633 O   0  0  0  0  0  0  0  0  0  0  0  0
    5.3569   -6.9845   -3.8079 C   0  0  2  0  0  0  0  0  0  0  0  0
    4.4253   -6.1814   -4.7299 C   0  0  0  0  0  0  0  0  0  0  0  0
    3.9012   -4.8866   -4.0492 C   0  0  0  0  0  0  0  0  0  0  0  0
    6.4848   -6.1014   -3.2651 C   0  0  0  0  0  0  0  0  0  0  0  0
    5.7685   -4.9949   -2.4719 C   0  0  1  0  0  0  0  0  0  0  0  0
    6.4189   -4.5535   -1.1638 C   0  0  0  0  0  0  0  0  0  0  0  0
    5.6389   -3.4164   -0.4023 C   0  0  2  0  0  0  0  0  0  0  0  0
    5.3309   -2.2148   -1.3514 C   0  0  3  0  0  0  0  0  0  0  0  0
    5.0506   -0.6237   -0.9001 C   0  0  3  0  0  0  0  0  0  0  0  0
    6.2245    0.1467   -0.2774 C   0  0  0  0  0  0  0  0  0  0  0  0
    7.0681    0.7040   -1.4273 C   0  0  0  0  0  0  0  0  0  0  0  0
    6.5530    0.1130   -2.7532 C   0  0  3  0  0  0  0  0  0  0  0  0
    7.8884   -0.8832   -3.0221 C   0  0  3  0  0  0  0  0  0  0  0  0
    8.5473   -2.0188   -2.1197 C   0  0  0  0  0  0  0  0  0  0  0  0
    9.3338   -2.2780   -0.7972 C   0  0  0  0  0  0  0  0  0  0  0  0
    9.3590   -1.7438    0.6434 C   0  0  0  0  0  0  0  0  0  0  0  0
    8.9071   -0.2290   -3.9469 C   0  0  0  0  0  0  0  0  0  0  0  0
    4.9230    0.1957   -2.2288 C   0  0  3  0  0  0  0  0  0  0  0  0
    4.5282    1.6997   -2.3930 C   0  0  0  0  0  0  0  0  0  0  0  0
    3.6563   -0.4436   -2.8763 C   0  0  0  0  0  0  0  0  0  0  0  0
    3.9340   -1.7322   -3.5471 C   0  0  0  0  0  0  0  0  0  0  0  0
    4.4556   -2.7865   -2.5781 C   0  0  3  0  0  0  0  0  0  0  0  0
    5.0570   -3.9981   -3.4289 C   0  0  3  0  0  0  0  0  0  0  0  0
    5.8021   -3.5376   -4.7381 C   0  0  0  0  0  0  0  0  0  0  0  0
    8.9771   -0.6472    1.0256 O   0  0  0  0  0  0  0  0  0  0  0  0
    6.4029   -3.0781    0.7451 O   0  0  0  0  0  0  0  0  0  0  0  0
    5.8591   -8.1248   -4.4713 O   0  0  0  0  0  0  0  0  0  0  0  0
   10.3719   -3.5219    1.1339 H   0  0  0  0  0  0  0  0  0  0  0  0
    9.2683   -2.6314    3.4450 H   0  0  0  0  0  0  0  0  0  0  0  0
   10.5252   -1.3710    3.0869 H   0  0  0  0  0  0  0  0  0  0  0  0
   11.1719   -2.3322    5.1620 H   0  0  0  0  0  0  0  0  0  0  0  0
    4.7753   -7.3539   -2.9572 H   0  0  0  0  0  0  0  0  0  0  0  0
    3.5812   -6.8046   -5.0375 H   0  0  0  0  0  0  0  0  0  0  0  0
    4.9573   -5.9614   -5.6646 H   0  0  0  0  0  0  0  0  0  0  0  0
    3.2079   -5.1789   -3.2519 H   0  0  0  0  0  0  0  0  0  0  0  0
    3.3124   -4.3157   -4.7756 H   0  0  0  0  0  0  0  0  0  0  0  0
    7.1807   -6.6887   -2.6511 H   0  0  0  0  0  0  0  0  0  0  0  0
    7.1148   -5.7162   -4.0860 H   0  0  0  0  0  0  0  0  0  0  0  0
    4.9259   -5.5138   -1.9984 H   0  0  0  0  0  0  0  0  0  0  0  0
    6.4579   -5.4305   -0.4996 H   0  0  0  0  0  0  0  0  0  0  0  0
    7.4824   -4.3716   -1.2956 H   0  0  0  0  0  0  0  0  0  0  0  0
    4.6940   -3.8396   -0.0447 H   0  0  0  0  0  0  0  0  0  0  0  0
    6.3056   -2.0722   -1.7267 H   0  0  0  0  0  0  0  0  0  0  0  0
    4.1727   -0.5562   -0.2462 H   0  0  0  0  0  0  0  0  0  0  0  0
    6.8009   -0.4820    0.3887 H   0  0  0  0  0  0  0  0  0  0  0  0
    5.8674    1.0025    0.3146 H   0  0  0  0  0  0  0  0  0  0  0  0
    8.1425    0.5992   -1.2466 H   0  0  0  0  0  0  0  0  0  0  0  0
    6.9705    1.8009   -1.4869 H   0  0  0  0  0  0  0  0  0  0  0  0
    6.0966   -0.7979   -3.0987 H   0  0  0  0  0  0  0  0  0  0  0  0
    7.4781   -1.5426   -3.7893 H   0  0  0  0  0  0  0  0  0  0  0  0
    9.2569   -2.4773   -2.8308 H   0  0  0  0  0  0  0  0  0  0  0  0
    7.8170   -2.8087   -2.1589 H   0  0  0  0  0  0  0  0  0  0  0  0
   10.3981   -2.3189   -1.0752 H   0  0  0  0  0  0  0  0  0  0  0  0
    9.0876   -3.3335   -0.5963 H   0  0  0  0  0  0  0  0  0  0  0  0
    9.4902   -1.0156   -4.4476 H   0  0  0  0  0  0  0  0  0  0  0  0
    8.3858    0.3093   -4.7466 H   0  0  0  0  0  0  0  0  0  0  0  0
    9.5880    0.4329   -3.4191 H   0  0  0  0  0  0  0  0  0  0  0  0
    3.5005    1.9144   -2.0762 H   0  0  0  0  0  0  0  0  0  0  0  0
    5.1727    2.4481   -1.9392 H   0  0  0  0  0  0  0  0  0  0  0  0
    4.5571    1.9196   -3.4783 H   0  0  0  0  0  0  0  0  0  0  0  0
    3.1616    0.2082   -3.6067 H   0  0  0  0  0  0  0  0  0  0  0  0
    2.8865   -0.6001   -2.0990 H   0  0  0  0  0  0  0  0  0  0  0  0
    3.0276   -2.1017   -4.0378 H   0  0  0  0  0  0  0  0  0  0  0  0
    4.6330   -1.4728   -4.3421 H   0  0  0  0  0  0  0  0  0  0  0  0
    3.5670   -3.1878   -2.0702 H   0  0  0  0  0  0  0  0  0  0  0  0
    6.1772   -4.3455   -5.3688 H   0  0  0  0  0  0  0  0  0  0  0  0
    5.1135   -3.0129   -5.4196 H   0  0  0  0  0  0  0  0  0  0  0  0
    6.6503   -2.8942   -4.5843 H   0  0  0  0  0  0  0  0  0  0  0  0
    6.5481   -3.8708    1.2449 H   0  0  0  0  0  0  0  0  0  0  0  0
    5.1725   -8.8100   -4.3986 H   0  0  0  0  0  0  0  0  0  0  0  0
  1  3  1  0  0  0  0
  1  4  2  0  0  0  0
  1  5  1  0  0  0  0
  2  3  1  0  0  0  0
  2 21  1  0  0  0  0
  2 33  1  0  0  0  0
  3 34  1  0  0  0  0
  3 35  1  0  0  0  0
  5 36  1  0  0  0  0
  6  7  1  0  0  0  0
  6  9  1  0  0  0  0
  6 32  1  0  0  0  0
  6 37  1  1  0  0  0
  7  8  1  0  0  0  0
  7 38  1  0  0  0  0
  7 39  1  0  0  0  0
  8 28  1  0  0  0  0
  8 40  1  0  0  0  0
  8 41  1  0  0  0  0
  9 42  1  0  0  0  0
  9 43  1  0  0  0  0
 10  9  1  0  0  0  0
 10 11  1  0  0  0  0
 10 28  1  0  0  0  0
 10 44  1  1  0  0  0
 11 12  1  0  0  0  0
 11 45  1  0  0  0  0
 11 46  1  0  0  0  0
 12 31  1  0  0  0  0
 12 47  1  1  0  0  0
 13 12  1  0  0  0  0
 13 14  1  0  0  0  0
 13 27  1  0  0  0  0
 13 48  1  0  0  0  0
 14 15  1  0  0  0  0
 14 23  1  0  0  0  0
 14 49  1  0  0  0  0
 15 16  1  0  0  0  0
 15 50  1  0  0  0  0
 15 51  1  0  0  0  0
 16 52  1  0  0  0  0
 16 53  1  0  0  0  0
 17 16  1  0  0  0  0
 17 23  1  0  0  0  0
 17 18  1  0  0  0  0
 17 54  1  0  0  0  0
 18 19  1  0  0  0  0
 18 22  1  0  0  0  0
 18 55  1  0  0  0  0
 19 20  1  0  0  0  0
 19 56  1  0  0  0  0
 19 57  1  0  0  0  0
 20 21  1  0  0  0  0
 20 58  1  0  0  0  0
 20 59  1  0  0  0  0
 21 30  2  0  0  0  0
 22 60  1  0  0  0  0
 22 61  1  0  0  0  0
 22 62  1  0  0  0  0
 23 25  1  0  0  0  0
 23 24  1  0  0  0  0
 24 63  1  0  0  0  0
 24 64  1  0  0  0  0
 24 65  1  0  0  0  0
 25 26  1  0  0  0  0
 25 66  1  0  0  0  0
 25 67  1  0  0  0  0
 26 68  1  0  0  0  0
 26 69  1  0  0  0  0
 27 26  1  0  0  0  0
 27 28  1  0  0  0  0
 27 70  1  0  0  0  0
 28 29  1  0  0  0  0
 29 71  1  0  0  0  0
 29 72  1  0  0  0  0
 29 73  1  0  0  0  0
 31 74  1  0  0  0  0
 32 75  1  0  0  0  0
M  END
>  <Mol_ID>
3427

>  <Formula>
C26H43NO5

>  <MolWeight>
449.62332

>  <Cat>
S5794

>  <Name>
Glycochenodeoxycholic acid

>  <Synonyms>
Glycochenodeoxycholate, Chenodeoxycholylglycine, Glycine chenodeoxycholate

>  <Target>
Others

>  <Form>
Free Base

>  <CAS>
640-79-9

>  <URL>
http://www.selleckchem.com/products/glycochenodeoxycholic-acid.html

$$$$
