Glycycoumarin
 OpenBabel08302521493D

 47 49  0  0  0  0  0  0  0  0999 V2000
    1.0359   -0.1644    0.1639 O   0  0  0  0  0  0  0  0  0  0  0  0
    0.2491   -1.2885    0.5118 C   0  0  0  0  0  0  0  0  0  0  0  0
    2.1652    2.3066    0.0649 C   0  0  0  0  0  0  0  0  0  0  0  0
    1.7224    2.8046   -1.2900 C   0  0  0  0  0  0  0  0  0  0  0  0
    0.4702    3.1518   -1.6604 C   0  0  0  0  0  0  0  0  0  0  0  0
    0.1628    3.5540   -3.0782 C   0  0  0  0  0  0  0  0  0  0  0  0
   -0.7022    3.1642   -0.7207 C   0  0  0  0  0  0  0  0  0  0  0  0
    5.1197    2.2888   -0.2167 O   0  0  0  0  0  0  0  0  0  0  0  0
    5.7342   -4.6631   -0.0033 O   0  0  0  0  0  0  0  0  0  0  0  0
    2.8307   -5.2581    2.3674 O   0  0  0  0  0  0  0  0  0  0  0  0
    0.5491   -8.6681    0.0901 O   0  0  0  0  0  0  0  0  0  0  0  0
    3.1817   -1.4206   -0.1327 C   0  0  0  0  0  0  0  0  0  0  0  0
    2.3970   -0.2474   -0.0025 C   0  0  0  0  0  0  0  0  0  0  0  0
    4.5725   -1.2769   -0.2077 C   0  0  0  0  0  0  0  0  0  0  0  0
    2.7009   -2.7961   -0.2130 C   0  0  0  0  0  0  0  0  0  0  0  0
    3.0188    1.0422   -0.0287 C   0  0  0  0  0  0  0  0  0  0  0  0
    5.4337   -2.4031   -0.2299 O   0  0  0  0  0  0  0  0  0  0  0  0
    5.1938   -0.0348   -0.2333 C   0  0  0  0  0  0  0  0  0  0  0  0
    3.4956   -3.8713   -0.1456 C   0  0  0  0  0  0  0  0  0  0  0  0
    4.4175    1.1163   -0.1619 C   0  0  0  0  0  0  0  0  0  0  0  0
    4.9704   -3.7118   -0.1124 C   0  0  0  0  0  0  0  0  0  0  0  0
    2.8248   -5.1791   -0.0759 C   0  0  0  0  0  0  0  0  0  0  0  0
    2.4981   -5.7867    1.1492 C   0  0  0  0  0  0  0  0  0  0  0  0
    2.3374   -5.7618   -1.2584 C   0  0  0  0  0  0  0  0  0  0  0  0
    1.7460   -6.9611    1.1902 C   0  0  0  0  0  0  0  0  0  0  0  0
    1.5693   -6.9313   -1.2181 C   0  0  0  0  0  0  0  0  0  0  0  0
    1.2907   -7.5271    0.0068 C   0  0  0  0  0  0  0  0  0  0  0  0
    0.0160   -1.8631   -0.3896 H   0  0  0  0  0  0  0  0  0  0  0  0
    0.7076   -1.8963    1.2988 H   0  0  0  0  0  0  0  0  0  0  0  0
   -0.7081   -0.9342    0.9037 H   0  0  0  0  0  0  0  0  0  0  0  0
    1.3178    2.1367    0.7373 H   0  0  0  0  0  0  0  0  0  0  0  0
    2.7338    3.1007    0.5624 H   0  0  0  0  0  0  0  0  0  0  0  0
    2.5078    2.8499   -2.0432 H   0  0  0  0  0  0  0  0  0  0  0  0
   -0.4475    2.7805   -3.5572 H   0  0  0  0  0  0  0  0  0  0  0  0
   -0.3916    4.4986   -3.1055 H   0  0  0  0  0  0  0  0  0  0  0  0
    1.0685    3.6883   -3.6786 H   0  0  0  0  0  0  0  0  0  0  0  0
   -0.9544    2.1494   -0.3999 H   0  0  0  0  0  0  0  0  0  0  0  0
   -0.4956    3.7850    0.1580 H   0  0  0  0  0  0  0  0  0  0  0  0
   -1.5921    3.5828   -1.2048 H   0  0  0  0  0  0  0  0  0  0  0  0
    4.5205    3.0493   -0.2472 H   0  0  0  0  0  0  0  0  0  0  0  0
    3.3834   -4.4701    2.2490 H   0  0  0  0  0  0  0  0  0  0  0  0
    0.3999   -9.0128   -0.8056 H   0  0  0  0  0  0  0  0  0  0  0  0
    1.6496   -2.9870   -0.3410 H   0  0  0  0  0  0  0  0  0  0  0  0
    6.2757    0.0390   -0.3062 H   0  0  0  0  0  0  0  0  0  0  0  0
    2.5250   -5.2904   -2.2212 H   0  0  0  0  0  0  0  0  0  0  0  0
    1.4988   -7.4199    2.1436 H   0  0  0  0  0  0  0  0  0  0  0  0
    1.1835   -7.3470   -2.1441 H   0  0  0  0  0  0  0  0  0  0  0  0
  1  2  1  0  0  0  0
  1 13  1  0  0  0  0
  2 28  1  0  0  0  0
  2 29  1  0  0  0  0
  2 30  1  0  0  0  0
  3  4  1  0  0  0  0
  3 16  1  0  0  0  0
  3 31  1  0  0  0  0
  3 32  1  0  0  0  0
  4  5  2  0  0  0  0
  4 33  1  0  0  0  0
  5  6  1  0  0  0  0
  5  7  1  0  0  0  0
  6 34  1  0  0  0  0
  6 35  1  0  0  0  0
  6 36  1  0  0  0  0
  7 37  1  0  0  0  0
  7 38  1  0  0  0  0
  7 39  1  0  0  0  0
  8 20  1  0  0  0  0
  8 40  1  0  0  0  0
  9 21  2  0  0  0  0
 10 23  1  0  0  0  0
 10 41  1  0  0  0  0
 11 27  1  0  0  0  0
 11 42  1  0  0  0  0
 12 13  2  0  0  0  0
 12 14  1  0  0  0  0
 12 15  1  0  0  0  0
 13 16  1  0  0  0  0
 14 17  1  0  0  0  0
 14 18  2  0  0  0  0
 15 19  2  0  0  0  0
 15 43  1  0  0  0  0
 16 20  2  0  0  0  0
 17 21  1  0  0  0  0
 18 20  1  0  0  0  0
 18 44  1  0  0  0  0
 19 21  1  0  0  0  0
 19 22  1  0  0  0  0
 22 23  2  0  0  0  0
 22 24  1  0  0  0  0
 23 25  1  0  0  0  0
 24 26  2  0  0  0  0
 24 45  1  0  0  0  0
 25 27  2  0  0  0  0
 25 46  1  0  0  0  0
 26 27  1  0  0  0  0
 26 47  1  0  0  0  0
M  END
>  <Mol_ID>
9841

>  <Formula>
C21H20O6

>  <MolWeight>
368.3799

>  <Cat>
E2470

>  <Name>
Glycycoumarin

>  <Synonyms>
NA

>  <Target>
IL-6, TNF-¦Á

>  <Form>
Free Base

>  <CAS>
94805-82-0

>  <URL>
https://www.selleckchem.com/products/glycycoumarin.html

$$$$
