GNE-317.cdx
 OpenBabel08302519593D

 51 55  0  0  0  0  0  0  0  0999 V2000
    0.0294   -0.9418    0.0203 C   0  0  0  0  0  0  0  0  0  0  0  0
   -0.3205    0.4003    0.0277 C   0  0  0  0  0  0  0  0  0  0  0  0
    0.6232    1.3885    0.0149 N   0  0  0  0  0  0  0  0  0  0  0  0
    1.8947    0.9466   -0.0434 C   0  0  0  0  0  0  0  0  0  0  0  0
    2.2828   -0.3416   -0.0932 N   0  0  0  0  0  0  0  0  0  0  0  0
    1.3699   -1.3241   -0.0531 C   0  0  0  0  0  0  0  0  0  0  0  0
   -1.3380   -1.9508    0.0648 S   0  0  0  0  0  0  0  0  0  0  0  0
   -2.4234   -0.6461    0.0503 C   0  0  0  0  0  0  0  0  0  0  0  0
   -1.7644    0.5841    0.0256 C   0  0  0  0  0  0  0  0  0  0  0  0
   -2.4029    1.9399    0.0227 C   0  0  0  0  0  0  0  0  0  0  0  0
    1.7469   -2.6567   -0.2042 N   0  0  0  0  0  0  0  0  0  0  0  0
    2.9938    1.9112   -0.1047 C   0  0  0  0  0  0  0  0  0  0  0  0
    2.8538    3.2810   -0.0513 C   0  0  0  0  0  0  0  0  0  0  0  0
    3.8815    4.1652   -0.1485 N   0  0  0  0  0  0  0  0  0  0  0  0
    5.1046    3.6517   -0.3215 C   0  0  0  0  0  0  0  0  0  0  0  0
    5.3767    2.3508   -0.3442 N   0  0  0  0  0  0  0  0  0  0  0  0
    4.3162    1.5158   -0.2401 C   0  0  0  0  0  0  0  0  0  0  0  0
    6.1674    4.5192   -0.4446 N   0  0  0  0  0  0  0  0  0  0  0  0
    3.0112   -2.8558   -0.9300 C   0  0  0  0  0  0  0  0  0  0  0  0
    3.1646   -4.3554   -1.2259 C   0  0  0  0  0  0  0  0  0  0  0  0
    3.1440   -5.1330   -0.0147 O   0  0  0  0  0  0  0  0  0  0  0  0
    1.9111   -4.9237    0.6975 C   0  0  0  0  0  0  0  0  0  0  0  0
    1.7070   -3.4392    1.0466 C   0  0  0  0  0  0  0  0  0  0  0  0
   -4.4683   -0.9941    1.5603 C   0  0  0  0  0  0  0  0  0  0  0  0
   -4.4299   -2.4461    1.5274 O   0  0  0  0  0  0  0  0  0  0  0  0
   -4.4284   -2.3988    0.0759 C   0  0  0  0  0  0  0  0  0  0  0  0
   -3.9708   -0.9005    0.0802 C   0  0  0  0  0  0  0  0  0  0  0  0
   -4.7623    0.0068   -0.7392 O   0  0  0  0  0  0  0  0  0  0  0  0
   -4.6490   -0.1663   -2.1470 C   0  0  0  0  0  0  0  0  0  0  0  0
   -2.0496    2.5269    0.8773 H   0  0  0  0  0  0  0  0  0  0  0  0
   -2.1441    2.4774   -0.8957 H   0  0  0  0  0  0  0  0  0  0  0  0
   -3.4916    1.9009    0.0908 H   0  0  0  0  0  0  0  0  0  0  0  0
    1.8777    3.7445    0.0730 H   0  0  0  0  0  0  0  0  0  0  0  0
    4.5884    0.4639   -0.2817 H   0  0  0  0  0  0  0  0  0  0  0  0
    7.0192    4.0515   -0.1693 H   0  0  0  0  0  0  0  0  0  0  0  0
    5.9499    5.3984   -0.0020 H   0  0  0  0  0  0  0  0  0  0  0  0
    3.8574   -2.5121   -0.3215 H   0  0  0  0  0  0  0  0  0  0  0  0
    3.0068   -2.3033   -1.8773 H   0  0  0  0  0  0  0  0  0  0  0  0
    2.3634   -4.7077   -1.8874 H   0  0  0  0  0  0  0  0  0  0  0  0
    4.1197   -4.5408   -1.7259 H   0  0  0  0  0  0  0  0  0  0  0  0
    1.9505   -5.5211    1.6131 H   0  0  0  0  0  0  0  0  0  0  0  0
    1.0811   -5.2996    0.0864 H   0  0  0  0  0  0  0  0  0  0  0  0
    2.5088   -3.1037    1.7167 H   0  0  0  0  0  0  0  0  0  0  0  0
    0.7555   -3.3291    1.5772 H   0  0  0  0  0  0  0  0  0  0  0  0
   -5.4895   -0.6400    1.7399 H   0  0  0  0  0  0  0  0  0  0  0  0
   -3.8077   -0.5835    2.3296 H   0  0  0  0  0  0  0  0  0  0  0  0
   -3.7596   -3.1486   -0.3601 H   0  0  0  0  0  0  0  0  0  0  0  0
   -5.4328   -2.5914   -0.3138 H   0  0  0  0  0  0  0  0  0  0  0  0
   -3.6383    0.0838   -2.4790 H   0  0  0  0  0  0  0  0  0  0  0  0
   -4.8918   -1.1937   -2.4340 H   0  0  0  0  0  0  0  0  0  0  0  0
   -5.3554    0.5098   -2.6357 H   0  0  0  0  0  0  0  0  0  0  0  0
  1  2  1  0  0  0  0
  1  7  1  0  0  0  0
  2  3  2  0  0  0  0
  3  4  1  0  0  0  0
  4  5  2  0  0  0  0
  4 12  1  0  0  0  0
  5  6  1  0  0  0  0
  6  1  2  0  0  0  0
  6 11  1  0  0  0  0
  7  8  1  0  0  0  0
  8  9  2  0  0  0  0
  8 27  1  0  0  0  0
  9  2  1  0  0  0  0
  9 10  1  0  0  0  0
 10 30  1  0  0  0  0
 10 31  1  0  0  0  0
 10 32  1  0  0  0  0
 11 19  1  0  0  0  0
 12 13  2  0  0  0  0
 13 14  1  0  0  0  0
 13 33  1  0  0  0  0
 14 15  2  0  0  0  0
 15 16  1  0  0  0  0
 15 18  1  0  0  0  0
 16 17  2  0  0  0  0
 17 12  1  0  0  0  0
 17 34  1  0  0  0  0
 18 35  1  0  0  0  0
 18 36  1  0  0  0  0
 19 20  1  0  0  0  0
 19 37  1  0  0  0  0
 19 38  1  0  0  0  0
 20 21  1  0  0  0  0
 20 39  1  0  0  0  0
 20 40  1  0  0  0  0
 21 22  1  0  0  0  0
 22 23  1  0  0  0  0
 22 41  1  0  0  0  0
 22 42  1  0  0  0  0
 23 11  1  0  0  0  0
 23 43  1  0  0  0  0
 23 44  1  0  0  0  0
 24 25  1  0  0  0  0
 24 45  1  0  0  0  0
 24 46  1  0  0  0  0
 25 26  1  0  0  0  0
 26 27  1  0  0  0  0
 26 47  1  0  0  0  0
 26 48  1  0  0  0  0
 27 24  1  0  0  0  0
 27 28  1  0  0  0  0
 28 29  1  0  0  0  0
 29 49  1  0  0  0  0
 29 50  1  0  0  0  0
 29 51  1  0  0  0  0
M  END
>  <Mol_ID>
2578

>  <Formula>
C19H22N6O3S

>  <MolWeight>
414.48138

>  <Cat>
S7798

>  <Name>
GNE-317

>  <Synonyms>
N/A

>  <Target>
PI3K

>  <Form>
free base

>  <CAS>
1394076-92-6

>  <URL>
http://selleckchem.com/products/gne-317.html

$$$$
