GNE-9605.cdx
 OpenBabel08302519583D

 50 53  0  0  0  0  0  0  0  0999 V2000
    7.3653   10.2359    1.8558 N   0  0  0  0  0  0  0  0  0  0  0  0
    7.4949    9.0422    1.2749 C   0  0  0  0  0  0  0  0  0  0  0  0
    8.6626    8.5823    0.8015 N   0  0  0  0  0  0  0  0  0  0  0  0
    9.7692    9.3417    0.8806 C   0  0  0  0  0  0  0  0  0  0  0  0
    9.7220   10.5781    1.4797 C   0  0  0  0  0  0  0  0  0  0  0  0
    8.4890   10.9680    1.9627 C   0  0  0  0  0  0  0  0  0  0  0  0
   10.8817   11.4938    1.6383 C   0  0  0  0  0  0  0  0  0  0  0  0
   12.0334   11.0970    1.0272 F   0  0  0  0  0  0  0  0  0  0  0  0
   10.6205   12.7305    1.1181 F   0  0  0  0  0  0  0  0  0  0  0  0
   11.2044   11.7148    2.9430 F   0  0  0  0  0  0  0  0  0  0  0  0
   10.9739    8.7969    0.4347 N   0  0  0  0  0  0  0  0  0  0  0  0
   10.9444    7.4825   -0.1913 C   0  0  0  0  0  0  0  0  0  0  0  0
    6.3331    8.2783    1.1127 N   0  0  0  0  0  0  0  0  0  0  0  0
    6.2268    7.0301    0.6118 C   0  0  0  0  0  0  0  0  0  0  0  0
    5.1218    6.4881    0.0146 C   0  0  0  0  0  0  0  0  0  0  0  0
    5.4848    5.2295   -0.3734 N   0  0  0  0  0  0  0  0  0  0  0  0
    6.7413    4.8978   -0.0059 N   0  0  0  0  0  0  0  0  0  0  0  0
    7.1923    6.0006    0.5925 C   0  0  0  0  0  0  0  0  0  0  0  0
    4.6834    4.2590   -1.1198 C   0  0  1  0  0  0  0  0  0  0  0  0
    5.4068    3.8313   -2.4070 C   0  0  0  0  0  0  0  0  0  0  0  0
    4.7752    2.6054   -3.0607 C   0  0  0  0  0  0  0  0  0  0  0  0
    4.5557    1.4687   -2.1579 N   0  0  3  0  0  0  0  0  0  0  0  0
    3.7611    1.9016   -0.9944 C   0  0  0  0  0  0  0  0  0  0  0  0
    4.3280    3.0873   -0.2088 C   0  0  2  0  0  0  0  0  0  0  0  0
    3.3609    3.5028    0.6664 F   0  0  0  0  0  0  0  0  0  0  0  0
    5.8196    0.8377   -1.7095 C   0  0  0  0  0  0  0  0  0  0  0  0
    6.5660    0.1106   -2.8433 C   0  0  0  0  0  0  0  0  0  0  0  0
    6.5967   -1.1215   -2.0678 O   0  0  0  0  0  0  0  0  0  0  0  0
    5.5335   -0.6015   -1.2248 C   0  0  0  0  0  0  0  0  0  0  0  0
    8.3601   11.9213    2.4728 H   0  0  0  0  0  0  0  0  0  0  0  0
   11.5108    9.4612   -0.1204 H   0  0  0  0  0  0  0  0  0  0  0  0
   10.8530    7.5748   -1.2772 H   0  0  0  0  0  0  0  0  0  0  0  0
   11.8911    6.9741    0.0264 H   0  0  0  0  0  0  0  0  0  0  0  0
   10.1520    6.8278    0.1776 H   0  0  0  0  0  0  0  0  0  0  0  0
    5.5287    8.8671    1.2778 H   0  0  0  0  0  0  0  0  0  0  0  0
    4.1369    6.8856   -0.1911 H   0  0  0  0  0  0  0  0  0  0  0  0
    8.1894    6.0028    1.0034 H   0  0  0  0  0  0  0  0  0  0  0  0
    3.7571    4.7806   -1.3951 H   0  0  0  0  0  0  0  0  0  0  0  0
    5.3855    4.6661   -3.1198 H   0  0  0  0  0  0  0  0  0  0  0  0
    6.4678    3.6245   -2.2228 H   0  0  0  0  0  0  0  0  0  0  0  0
    3.8008    2.8955   -3.4765 H   0  0  0  0  0  0  0  0  0  0  0  0
    5.3734    2.3032   -3.9282 H   0  0  0  0  0  0  0  0  0  0  0  0
    2.7535    2.1632   -1.3434 H   0  0  0  0  0  0  0  0  0  0  0  0
    3.5952    1.0644   -0.3041 H   0  0  0  0  0  0  0  0  0  0  0  0
    5.1819    2.7606    0.3946 H   0  0  0  0  0  0  0  0  0  0  0  0
    6.4700    1.4220   -1.0505 H   0  0  0  0  0  0  0  0  0  0  0  0
    6.0430   -0.0463   -3.7916 H   0  0  0  0  0  0  0  0  0  0  0  0
    7.5788    0.4779   -3.0359 H   0  0  0  0  0  0  0  0  0  0  0  0
    5.7266   -0.7832   -0.1639 H   0  0  0  0  0  0  0  0  0  0  0  0
    4.5726   -1.0490   -1.5043 H   0  0  0  0  0  0  0  0  0  0  0  0
  1  2  2  0  0  0  0
  2  3  1  0  0  0  0
  2 13  1  0  0  0  0
  3  4  2  0  0  0  0
  4  5  1  0  0  0  0
  4 11  1  0  0  0  0
  5  6  2  0  0  0  0
  5  7  1  0  0  0  0
  6  1  1  0  0  0  0
  6 30  1  0  0  0  0
  7  8  1  0  0  0  0
  7  9  1  0  0  0  0
  7 10  1  0  0  0  0
 11 12  1  0  0  0  0
 11 31  1  0  0  0  0
 12 32  1  0  0  0  0
 12 33  1  0  0  0  0
 12 34  1  0  0  0  0
 13 14  1  0  0  0  0
 13 35  1  0  0  0  0
 14 15  2  0  0  0  0
 15 16  1  0  0  0  0
 15 36  1  0  0  0  0
 16 17  1  0  0  0  0
 17 18  2  0  0  0  0
 18 14  1  0  0  0  0
 18 37  1  0  0  0  0
 19 20  1  0  0  0  0
 19 38  1  6  0  0  0
 19 16  1  0  0  0  0
 20 21  1  0  0  0  0
 20 39  1  0  0  0  0
 20 40  1  0  0  0  0
 21 22  1  0  0  0  0
 21 41  1  0  0  0  0
 21 42  1  0  0  0  0
 22 23  1  0  0  0  0
 22 26  1  0  0  0  0
 23 24  1  0  0  0  0
 23 43  1  0  0  0  0
 23 44  1  0  0  0  0
 24 19  1  0  0  0  0
 24 45  1  1  0  0  0
 24 25  1  0  0  0  0
 26 27  1  0  0  0  0
 26 46  1  0  0  0  0
 27 28  1  0  0  0  0
 27 47  1  0  0  0  0
 27 48  1  0  0  0  0
 28 29  1  0  0  0  0
 29 26  1  0  0  0  0
 29 49  1  0  0  0  0
 29 50  1  0  0  0  0
M  END
>  <Mol_ID>
2467

>  <Formula>
C17H20ClF4N7O

>  <MolWeight>
449.8336128

>  <Cat>
S7368

>  <Name>
GNE-9605

>  <Synonyms>
N/A

>  <Target>
LRRK2

>  <Form>
free base

>  <CAS>
1536200-31-3

>  <URL>
http://selleckchem.com/products/gne-9605.html

$$$$
