Goitrin
 OpenBabel08302521243D

 15 15  0  0  0  0  0  0  0  0999 V2000
   -1.9449    0.7450   -0.0447 C   0  0  3  0  0  0  0  0  0  0  0  0
   -1.9729   -0.7706    0.1330 C   0  0  0  0  0  0  0  0  0  0  0  0
   -0.6323   -1.1535   -0.1675 N   0  0  0  0  0  0  0  0  0  0  0  0
    0.1750   -0.0574   -0.1076 C   0  0  0  0  0  0  0  0  0  0  0  0
   -0.5461    1.0888    0.0067 O   0  0  0  0  0  0  0  0  0  0  0  0
    1.8173   -0.0277   -0.1223 S   0  0  0  0  0  0  0  0  0  0  0  0
   -2.5000    1.2049   -1.3651 C   0  0  0  0  0  0  0  0  0  0  0  0
   -3.5524    2.0239   -1.5016 C   0  0  0  0  0  0  0  0  0  0  0  0
   -2.4569    1.2390    0.7886 H   0  0  0  0  0  0  0  0  0  0  0  0
   -2.6810   -1.2973   -0.5125 H   0  0  0  0  0  0  0  0  0  0  0  0
   -2.1668   -1.0402    1.1766 H   0  0  0  0  0  0  0  0  0  0  0  0
   -0.2527   -2.0899   -0.0993 H   0  0  0  0  0  0  0  0  0  0  0  0
   -1.9952    0.8437   -2.2592 H   0  0  0  0  0  0  0  0  0  0  0  0
   -3.8985    2.3217   -2.4870 H   0  0  0  0  0  0  0  0  0  0  0  0
   -4.0825    2.4259   -0.6437 H   0  0  0  0  0  0  0  0  0  0  0  0
  1  2  1  0  0  0  0
  1  7  1  0  0  0  0
  1  9  1  0  0  0  0
  2  3  1  0  0  0  0
  2 10  1  0  0  0  0
  2 11  1  0  0  0  0
  3  4  1  0  0  0  0
  3 12  1  0  0  0  0
  4  5  1  0  0  0  0
  4  6  2  0  0  0  0
  5  1  1  0  0  0  0
  7  8  2  0  0  0  0
  7 13  1  0  0  0  0
  8 14  1  0  0  0  0
  8 15  1  0  0  0  0
M  END
>  <Mol_ID>
5129

>  <Formula>
C5H7NOS

>  <MolWeight>
129.18018

>  <Cat>
S3251

>  <Name>
Goitrin

>  <Synonyms>
DL-Goitrin, (R, S)-Goitrin, R,S-goitrin

>  <Target>
Antiviral

>  <Form>
free base

>  <CAS>
13190-34-6

>  <URL>
http://www.selleckchem.com/products/goitrin.html

$$$$
