Gomisin J
 OpenBabel08302521493D

 56 58  0  0  0  0  0  0  0  0999 V2000
    0.8592    0.0235   -0.0490 O   0  0  0  0  0  0  0  0  0  0  0  0
    0.1727    1.0795   -0.7080 C   0  0  0  0  0  0  0  0  0  0  0  0
    1.4677    1.4662    3.0013 O   0  0  0  0  0  0  0  0  0  0  0  0
    2.6236    0.6880    3.2911 C   0  0  0  0  0  0  0  0  0  0  0  0
    2.3583   -2.3031   -0.8646 O   0  0  0  0  0  0  0  0  0  0  0  0
    1.0390   -2.6386   -0.4633 C   0  0  0  0  0  0  0  0  0  0  0  0
    0.1983    3.6368    3.6458 O   0  0  0  0  0  0  0  0  0  0  0  0
   -0.9696    4.4416    3.7552 C   0  0  0  0  0  0  0  0  0  0  0  0
    4.9645   -2.3624   -0.5566 O   0  0  0  0  0  0  0  0  0  0  0  0
    6.2368    2.2602   -1.5214 C   0  0  0  0  0  0  0  0  0  0  0  0
    0.2845    5.9581    1.8974 O   0  0  0  0  0  0  0  0  0  0  0  0
    4.8156    5.3824    0.2235 C   0  0  0  0  0  0  0  0  0  0  0  0
    2.9871    1.1880    0.4251 C   0  0  0  0  0  0  0  0  0  0  0  0
    2.3477    2.4393    0.8943 C   0  0  0  0  0  0  0  0  0  0  0  0
    2.2325    0.0639   -0.0374 C   0  0  0  0  0  0  0  0  0  0  0  0
    4.4065    1.0785    0.5019 C   0  0  0  0  0  0  0  0  0  0  0  0
    1.6114    2.5123    2.1098 C   0  0  0  0  0  0  0  0  0  0  0  0
    2.4285    3.6048    0.0891 C   0  0  0  0  0  0  0  0  0  0  0  0
    2.9012   -1.1408   -0.3679 C   0  0  0  0  0  0  0  0  0  0  0  0
    5.0343   -0.1395    0.2025 C   0  0  0  0  0  0  0  0  0  0  0  0
    5.3058    2.2390    0.8782 C   0  0  0  0  0  0  0  0  0  0  0  0
    0.8754    3.6793    2.4475 C   0  0  0  0  0  0  0  0  0  0  0  0
    1.6885    4.7493    0.4354 C   0  0  0  0  0  0  0  0  0  0  0  0
    3.3528    3.7199   -1.1087 C   0  0  0  0  0  0  0  0  0  0  0  0
    4.2909   -1.2111   -0.2444 C   0  0  0  0  0  0  0  0  0  0  0  0
    5.7772    3.0977   -0.3178 C   0  0  3  0  0  0  0  0  0  0  0  0
    0.9283    4.7887    1.5989 C   0  0  0  0  0  0  0  0  0  0  0  0
    4.7853    4.2058   -0.7678 C   0  0  3  0  0  0  0  0  0  0  0  0
   -0.0661    1.8831   -0.0091 H   0  0  0  0  0  0  0  0  0  0  0  0
    0.7095    1.4556   -1.5839 H   0  0  0  0  0  0  0  0  0  0  0  0
   -0.7902    0.6821   -1.0467 H   0  0  0  0  0  0  0  0  0  0  0  0
    2.6557   -0.1913    2.6434 H   0  0  0  0  0  0  0  0  0  0  0  0
    3.5540    1.2621    3.2369 H   0  0  0  0  0  0  0  0  0  0  0  0
    2.5344    0.3071    4.3121 H   0  0  0  0  0  0  0  0  0  0  0  0
    0.8923   -2.5021    0.6131 H   0  0  0  0  0  0  0  0  0  0  0  0
    0.2995   -2.0903   -1.0531 H   0  0  0  0  0  0  0  0  0  0  0  0
    0.8941   -3.7022   -0.6818 H   0  0  0  0  0  0  0  0  0  0  0  0
   -0.7142    5.4847    3.9647 H   0  0  0  0  0  0  0  0  0  0  0  0
   -1.6137    4.3520    2.8732 H   0  0  0  0  0  0  0  0  0  0  0  0
   -1.5397    4.0821    4.6169 H   0  0  0  0  0  0  0  0  0  0  0  0
    4.2678   -2.9760   -0.8593 H   0  0  0  0  0  0  0  0  0  0  0  0
    6.6748    2.9009   -2.2934 H   0  0  0  0  0  0  0  0  0  0  0  0
    7.0066    1.5418   -1.2214 H   0  0  0  0  0  0  0  0  0  0  0  0
    5.4123    1.7106   -1.9864 H   0  0  0  0  0  0  0  0  0  0  0  0
    0.5609    6.6508    1.2759 H   0  0  0  0  0  0  0  0  0  0  0  0
    5.8342    5.7708    0.3298 H   0  0  0  0  0  0  0  0  0  0  0  0
    4.1911    6.2085   -0.1308 H   0  0  0  0  0  0  0  0  0  0  0  0
    4.4762    5.0949    1.2238 H   0  0  0  0  0  0  0  0  0  0  0  0
    6.1120   -0.2492    0.2930 H   0  0  0  0  0  0  0  0  0  0  0  0
    6.1960    1.8281    1.3750 H   0  0  0  0  0  0  0  0  0  0  0  0
    4.8428    2.8570    1.6551 H   0  0  0  0  0  0  0  0  0  0  0  0
    1.7440    5.6279   -0.2048 H   0  0  0  0  0  0  0  0  0  0  0  0
    2.9104    4.4427   -1.8094 H   0  0  0  0  0  0  0  0  0  0  0  0
    3.3705    2.7845   -1.6786 H   0  0  0  0  0  0  0  0  0  0  0  0
    6.6806    3.6189    0.0323 H   0  0  0  0  0  0  0  0  0  0  0  0
    5.1890    4.6121   -1.7067 H   0  0  0  0  0  0  0  0  0  0  0  0
  1  2  1  0  0  0  0
  1 15  1  0  0  0  0
  2 29  1  0  0  0  0
  2 30  1  0  0  0  0
  2 31  1  0  0  0  0
  3  4  1  0  0  0  0
  3 17  1  0  0  0  0
  4 32  1  0  0  0  0
  4 33  1  0  0  0  0
  4 34  1  0  0  0  0
  5  6  1  0  0  0  0
  5 19  1  0  0  0  0
  6 35  1  0  0  0  0
  6 36  1  0  0  0  0
  6 37  1  0  0  0  0
  7  8  1  0  0  0  0
  7 22  1  0  0  0  0
  8 38  1  0  0  0  0
  8 39  1  0  0  0  0
  8 40  1  0  0  0  0
  9 25  1  0  0  0  0
  9 41  1  0  0  0  0
 10 26  1  0  0  0  0
 10 42  1  0  0  0  0
 10 43  1  0  0  0  0
 10 44  1  0  0  0  0
 11 27  1  0  0  0  0
 11 45  1  0  0  0  0
 12 28  1  0  0  0  0
 12 46  1  0  0  0  0
 12 47  1  0  0  0  0
 12 48  1  0  0  0  0
 13 14  1  0  0  0  0
 13 15  2  0  0  0  0
 13 16  1  0  0  0  0
 14 17  2  0  0  0  0
 14 18  1  0  0  0  0
 15 19  1  0  0  0  0
 16 20  2  0  0  0  0
 16 21  1  0  0  0  0
 17 22  1  0  0  0  0
 18 23  2  0  0  0  0
 18 24  1  0  0  0  0
 19 25  2  0  0  0  0
 20 25  1  0  0  0  0
 20 49  1  0  0  0  0
 21 26  1  0  0  0  0
 21 50  1  0  0  0  0
 21 51  1  0  0  0  0
 22 27  2  0  0  0  0
 23 27  1  0  0  0  0
 23 52  1  0  0  0  0
 24 28  1  0  0  0  0
 24 53  1  0  0  0  0
 24 54  1  0  0  0  0
 26 28  1  0  0  0  0
 26 55  1  0  0  0  0
 28 56  1  0  0  0  0
M  END
>  <Mol_ID>
9822

>  <Formula>
C22H28O6

>  <MolWeight>
388.45412

>  <Cat>
E2417

>  <Name>
Gomisin J

>  <Synonyms>
(6R,7S,12aS)-5,6,7,8-Tetrahydro-1,2,11,12-tetramethoxy-6,7-dimethyldibenzo[a,c]cyclooctene-3,10-diol

>  <Target>
nitric oxide, TNF-¦Á, IL-1¦Â, IL-6, p38 MAPK, ERK, JNK

>  <Form>
Free base

>  <CAS>
66280-25-9

>  <URL>
https://www.selleckchem.com/products/gomisin-j.html

$$$$
