GRL0617
 OpenBabel08302521253D

 43 45  0  0  0  0  0  0  0  0999 V2000
    4.7034    0.4956   -1.5882 O   0  0  0  0  0  0  0  0  0  0  0  0
    2.7581    0.9564   -0.4701 N   0  0  0  0  0  0  0  0  0  0  0  0
    3.5623   -1.6011    3.8815 N   0  0  0  0  0  0  0  0  0  0  0  0
    2.1692    1.7368   -1.5461 C   0  0  1  0  0  0  0  0  0  0  0  0
    1.4812    0.9133   -2.6351 C   0  0  0  0  0  0  0  0  0  0  0  0
    0.3534    0.0582   -2.4324 C   0  0  0  0  0  0  0  0  0  0  0  0
   -0.3348   -0.4495   -3.5683 C   0  0  0  0  0  0  0  0  0  0  0  0
    1.9527    1.1072   -3.9528 C   0  0  0  0  0  0  0  0  0  0  0  0
   -0.1427   -0.3298   -1.1684 C   0  0  0  0  0  0  0  0  0  0  0  0
    0.1561   -0.2074   -4.8598 C   0  0  0  0  0  0  0  0  0  0  0  0
    1.3102    0.5394   -5.0494 C   0  0  0  0  0  0  0  0  0  0  0  0
    4.6780    0.0707    0.7480 C   0  0  0  0  0  0  0  0  0  0  0  0
   -1.5146   -1.1952   -3.4161 C   0  0  0  0  0  0  0  0  0  0  0  0
    4.0595    0.5052   -0.5436 C   0  0  0  0  0  0  0  0  0  0  0  0
    6.0443    0.2816    1.0256 C   0  0  0  0  0  0  0  0  0  0  0  0
   -1.3032   -1.0986   -1.0280 C   0  0  0  0  0  0  0  0  0  0  0  0
   -2.0081   -1.5020   -2.1517 C   0  0  0  0  0  0  0  0  0  0  0  0
    3.8678   -0.5725    1.7058 C   0  0  0  0  0  0  0  0  0  0  0  0
    6.5637   -0.1955    2.2415 C   0  0  0  0  0  0  0  0  0  0  0  0
    4.4038   -1.0748    2.8937 C   0  0  0  0  0  0  0  0  0  0  0  0
    7.0042    0.9896    0.1078 C   0  0  0  0  0  0  0  0  0  0  0  0
    5.7491   -0.8446    3.1700 C   0  0  0  0  0  0  0  0  0  0  0  0
    1.2589    2.8203   -0.9549 C   0  0  0  0  0  0  0  0  0  0  0  0
    2.3255    1.0386    0.4379 H   0  0  0  0  0  0  0  0  0  0  0  0
    4.0400   -2.2221    4.5290 H   0  0  0  0  0  0  0  0  0  0  0  0
    2.7101   -2.0187    3.5198 H   0  0  0  0  0  0  0  0  0  0  0  0
    3.0029    2.2818   -2.0087 H   0  0  0  0  0  0  0  0  0  0  0  0
    2.8352    1.7183   -4.1343 H   0  0  0  0  0  0  0  0  0  0  0  0
    0.3850   -0.0550   -0.2605 H   0  0  0  0  0  0  0  0  0  0  0  0
   -0.3518   -0.6155   -5.7308 H   0  0  0  0  0  0  0  0  0  0  0  0
    1.6988    0.6985   -6.0519 H   0  0  0  0  0  0  0  0  0  0  0  0
   -2.0638   -1.5451   -4.2886 H   0  0  0  0  0  0  0  0  0  0  0  0
   -1.6547   -1.3755   -0.0376 H   0  0  0  0  0  0  0  0  0  0  0  0
   -2.9290   -2.0700   -2.0487 H   0  0  0  0  0  0  0  0  0  0  0  0
    2.8095   -0.7215    1.5162 H   0  0  0  0  0  0  0  0  0  0  0  0
    7.6172   -0.0509    2.4777 H   0  0  0  0  0  0  0  0  0  0  0  0
    7.6117    1.6987    0.6829 H   0  0  0  0  0  0  0  0  0  0  0  0
    7.6707    0.2625   -0.3672 H   0  0  0  0  0  0  0  0  0  0  0  0
    6.5176    1.5843   -0.6662 H   0  0  0  0  0  0  0  0  0  0  0  0
    6.1817   -1.1745    4.1111 H   0  0  0  0  0  0  0  0  0  0  0  0
    1.8078    3.4044   -0.2052 H   0  0  0  0  0  0  0  0  0  0  0  0
    0.9085    3.5132   -1.7266 H   0  0  0  0  0  0  0  0  0  0  0  0
    0.3821    2.4018   -0.4498 H   0  0  0  0  0  0  0  0  0  0  0  0
  1 14  2  0  0  0  0
  2 14  1  0  0  0  0
  2 24  1  0  0  0  0
  3 20  1  0  0  0  0
  3 25  1  0  0  0  0
  3 26  1  0  0  0  0
  4  5  1  0  0  0  0
  4  2  1  0  0  0  0
  4 23  1  0  0  0  0
  4 27  1  6  0  0  0
  5  6  1  0  0  0  0
  5  8  2  0  0  0  0
  6  7  2  0  0  0  0
  6  9  1  0  0  0  0
  7 10  1  0  0  0  0
  7 13  1  0  0  0  0
  8 11  1  0  0  0  0
  8 28  1  0  0  0  0
  9 16  2  0  0  0  0
  9 29  1  0  0  0  0
 10 11  2  0  0  0  0
 10 30  1  0  0  0  0
 11 31  1  0  0  0  0
 12 14  1  0  0  0  0
 12 15  2  0  0  0  0
 12 18  1  0  0  0  0
 13 17  2  0  0  0  0
 13 32  1  0  0  0  0
 15 19  1  0  0  0  0
 15 21  1  0  0  0  0
 16 17  1  0  0  0  0
 16 33  1  0  0  0  0
 17 34  1  0  0  0  0
 18 20  2  0  0  0  0
 18 35  1  0  0  0  0
 19 22  2  0  0  0  0
 19 36  1  0  0  0  0
 20 22  1  0  0  0  0
 21 37  1  0  0  0  0
 21 38  1  0  0  0  0
 21 39  1  0  0  0  0
 22 40  1  0  0  0  0
 23 41  1  0  0  0  0
 23 42  1  0  0  0  0
 23 43  1  0  0  0  0
M  END
>  <Mol_ID>
5190

>  <Formula>
C20H20N2O

>  <MolWeight>
304.3856

>  <Cat>
S6845

>  <Name>
GRL0617

>  <Synonyms>
N/A

>  <Target>
DUB,SARS-CoV

>  <Form>
free base

>  <CAS>
1093070-16-6

>  <URL>
http://www.selleckchem.com/products/grl0617.html

$$$$
