GSK'963.cdx
 OpenBabel08302520433D

 35 36  0  0  0  0  0  0  0  0999 V2000
   -3.0620    4.7589   -0.7233 C   0  0  0  0  0  0  0  0  0  0  0  0
   -4.1802    4.0780   -0.2471 C   0  0  0  0  0  0  0  0  0  0  0  0
   -4.1560    2.6873   -0.1252 C   0  0  0  0  0  0  0  0  0  0  0  0
   -3.0014    1.9609   -0.4538 C   0  0  0  0  0  0  0  0  0  0  0  0
   -1.8992    2.6574   -0.9801 C   0  0  0  0  0  0  0  0  0  0  0  0
   -1.9280    4.0479   -1.1071 C   0  0  0  0  0  0  0  0  0  0  0  0
   -2.9033    0.4573   -0.2502 C   0  0  2  0  0  0  0  0  0  0  0  0
   -3.3881   -0.3060   -1.4721 C   0  0  0  0  0  0  0  0  0  0  0  0
   -4.5114   -1.0735   -0.8716 C   0  0  0  0  0  0  0  0  0  0  0  0
   -4.6825   -0.9577    0.4017 N   0  0  0  0  0  0  0  0  0  0  0  0
   -3.7346   -0.0701    0.8425 N   0  0  0  0  0  0  0  0  0  0  0  0
   -3.4935    0.1899    2.1842 C   0  0  0  0  0  0  0  0  0  0  0  0
   -2.5498    0.9115    2.5248 O   0  0  0  0  0  0  0  0  0  0  0  0
   -4.3961   -0.4908    3.2515 C   0  0  0  0  0  0  0  0  0  0  0  0
   -4.1429   -2.0070    3.2572 C   0  0  0  0  0  0  0  0  0  0  0  0
   -4.0226    0.0486    4.6520 C   0  0  0  0  0  0  0  0  0  0  0  0
   -5.8879   -0.1828    3.0449 C   0  0  0  0  0  0  0  0  0  0  0  0
   -3.0725    5.8438   -0.7875 H   0  0  0  0  0  0  0  0  0  0  0  0
   -5.0664    4.6318    0.0518 H   0  0  0  0  0  0  0  0  0  0  0  0
   -5.0373    2.1800    0.2614 H   0  0  0  0  0  0  0  0  0  0  0  0
   -0.9957    2.1244   -1.2691 H   0  0  0  0  0  0  0  0  0  0  0  0
   -1.0574    4.5782   -1.4849 H   0  0  0  0  0  0  0  0  0  0  0  0
   -1.8635    0.1991   -0.0167 H   0  0  0  0  0  0  0  0  0  0  0  0
   -3.7587    0.3070   -2.2991 H   0  0  0  0  0  0  0  0  0  0  0  0
   -2.6436   -1.0134   -1.8486 H   0  0  0  0  0  0  0  0  0  0  0  0
   -5.1361   -1.7315   -1.4939 H   0  0  0  0  0  0  0  0  0  0  0  0
   -3.0802   -2.2226    3.4188 H   0  0  0  0  0  0  0  0  0  0  0  0
   -4.7104   -2.4985    4.0550 H   0  0  0  0  0  0  0  0  0  0  0  0
   -4.4297   -2.4881    2.3189 H   0  0  0  0  0  0  0  0  0  0  0  0
   -4.2601    1.1152    4.7413 H   0  0  0  0  0  0  0  0  0  0  0  0
   -4.5750   -0.4793    5.4389 H   0  0  0  0  0  0  0  0  0  0  0  0
   -2.9541   -0.0698    4.8637 H   0  0  0  0  0  0  0  0  0  0  0  0
   -6.0667    0.8985    3.0354 H   0  0  0  0  0  0  0  0  0  0  0  0
   -6.2892   -0.5839    2.1122 H   0  0  0  0  0  0  0  0  0  0  0  0
   -6.4906   -0.6160    3.8519 H   0  0  0  0  0  0  0  0  0  0  0  0
  1  2  2  0  0  0  0
  1 18  1  0  0  0  0
  2  3  1  0  0  0  0
  2 19  1  0  0  0  0
  3  4  2  0  0  0  0
  3 20  1  0  0  0  0
  4  5  1  0  0  0  0
  5  6  2  0  0  0  0
  5 21  1  0  0  0  0
  6  1  1  0  0  0  0
  6 22  1  0  0  0  0
  7  8  1  0  0  0  0
  7 23  1  1  0  0  0
  7  4  1  0  0  0  0
  8  9  1  0  0  0  0
  8 24  1  0  0  0  0
  8 25  1  0  0  0  0
  9 10  2  0  0  0  0
  9 26  1  0  0  0  0
 10 11  1  0  0  0  0
 11  7  1  0  0  0  0
 11 12  1  0  0  0  0
 12 13  2  0  0  0  0
 12 14  1  0  0  0  0
 14 15  1  0  0  0  0
 14 16  1  0  0  0  0
 14 17  1  0  0  0  0
 15 27  1  0  0  0  0
 15 28  1  0  0  0  0
 15 29  1  0  0  0  0
 16 30  1  0  0  0  0
 16 31  1  0  0  0  0
 16 32  1  0  0  0  0
 17 33  1  0  0  0  0
 17 34  1  0  0  0  0
 17 35  1  0  0  0  0
M  END
>  <Mol_ID>
4214

>  <Formula>
C14H18N2O

>  <MolWeight>
230.30552

>  <Cat>
S8642

>  <Name>
GSK'963

>  <Synonyms>
N/A

>  <Target>
RIP kinase

>  <Form>
free base

>  <CAS>
2049868-46-2

>  <URL>
http://selleckchem.com/products/gsk963.html

$$$$
