GSK180736A.cdx
 OpenBabel08302520433D

 43 46  0  0  0  0  0  0  0  0999 V2000
    0.9653    1.1047    1.0972 C   0  0  0  0  0  0  0  0  0  0  0  0
   -0.2260    0.3967    1.1878 C   0  0  0  0  0  0  0  0  0  0  0  0
   -0.2903   -0.9882    1.0751 C   0  0  0  0  0  0  0  0  0  0  0  0
    0.9155   -1.6617    0.8490 C   0  0  0  0  0  0  0  0  0  0  0  0
    2.1411   -0.9955    0.7203 C   0  0  0  0  0  0  0  0  0  0  0  0
    2.1715    0.4019    0.8707 C   0  0  0  0  0  0  0  0  0  0  0  0
    0.5742    2.4532    1.2684 C   0  0  0  0  0  0  0  0  0  0  0  0
   -0.7420    2.5945    1.4510 N   0  0  0  0  0  0  0  0  0  0  0  0
   -1.2018    1.3330    1.3949 N   0  0  0  0  0  0  0  0  0  0  0  0
    3.3628   -1.6755    0.4478 N   0  0  0  0  0  0  0  0  0  0  0  0
    3.4700   -3.0074    0.0868 C   0  0  0  0  0  0  0  0  0  0  0  0
    4.8552   -3.5529   -0.0825 C   0  0  0  0  0  0  0  0  0  0  0  0
    2.5203   -3.7675   -0.0859 O   0  0  0  0  0  0  0  0  0  0  0  0
    5.0913   -4.5671   -0.9481 C   0  0  0  0  0  0  0  0  0  0  0  0
    6.3391   -5.1545   -0.9436 N   0  0  0  0  0  0  0  0  0  0  0  0
    7.4218   -4.7062   -0.2518 C   0  0  0  0  0  0  0  0  0  0  0  0
    7.2265   -3.5890    0.4927 N   0  0  0  0  0  0  0  0  0  0  0  0
    5.9135   -3.1427    0.9128 C   0  0  3  0  0  0  0  0  0  0  0  0
    5.6465   -3.6176    2.3378 C   0  0  0  0  0  0  0  0  0  0  0  0
    4.1312   -5.2008   -1.9220 C   0  0  0  0  0  0  0  0  0  0  0  0
    8.5182   -5.2468   -0.3306 O   0  0  0  0  0  0  0  0  0  0  0  0
    6.0586   -2.8263    3.4254 C   0  0  0  0  0  0  0  0  0  0  0  0
    5.8266   -3.2464    4.7373 C   0  0  0  0  0  0  0  0  0  0  0  0
    5.1904   -4.4595    4.9704 C   0  0  0  0  0  0  0  0  0  0  0  0
    4.7966   -5.2710    3.9169 C   0  0  0  0  0  0  0  0  0  0  0  0
    5.0348   -4.8583    2.6056 C   0  0  0  0  0  0  0  0  0  0  0  0
    4.9585   -4.8531    6.2289 F   0  0  0  0  0  0  0  0  0  0  0  0
   -1.2228   -1.5369    1.1520 H   0  0  0  0  0  0  0  0  0  0  0  0
    0.8470   -2.7427    0.7874 H   0  0  0  0  0  0  0  0  0  0  0  0
    3.1002    0.9640    0.7933 H   0  0  0  0  0  0  0  0  0  0  0  0
    1.1927    3.3407    1.2628 H   0  0  0  0  0  0  0  0  0  0  0  0
   -2.1973    1.1730    1.5046 H   0  0  0  0  0  0  0  0  0  0  0  0
    4.1913   -1.0960    0.4492 H   0  0  0  0  0  0  0  0  0  0  0  0
    6.5167   -5.9678   -1.5224 H   0  0  0  0  0  0  0  0  0  0  0  0
    8.0350   -3.3181    1.0342 H   0  0  0  0  0  0  0  0  0  0  0  0
    5.9930   -2.0493    0.9167 H   0  0  0  0  0  0  0  0  0  0  0  0
    4.6066   -5.3018   -2.9041 H   0  0  0  0  0  0  0  0  0  0  0  0
    3.8552   -6.2035   -1.5758 H   0  0  0  0  0  0  0  0  0  0  0  0
    3.2165   -4.6306   -2.0912 H   0  0  0  0  0  0  0  0  0  0  0  0
    6.5658   -1.8780    3.2616 H   0  0  0  0  0  0  0  0  0  0  0  0
    6.1379   -2.6378    5.5803 H   0  0  0  0  0  0  0  0  0  0  0  0
    4.3078   -6.2191    4.1176 H   0  0  0  0  0  0  0  0  0  0  0  0
    4.7287   -5.5196    1.7968 H   0  0  0  0  0  0  0  0  0  0  0  0
  1  2  1  0  0  0  0
  1  7  1  0  0  0  0
  2  3  2  0  0  0  0
  3  4  1  0  0  0  0
  3 28  1  0  0  0  0
  4  5  2  0  0  0  0
  4 29  1  0  0  0  0
  5  6  1  0  0  0  0
  5 10  1  0  0  0  0
  6  1  2  0  0  0  0
  6 30  1  0  0  0  0
  7  8  2  0  0  0  0
  7 31  1  0  0  0  0
  8  9  1  0  0  0  0
  9  2  1  0  0  0  0
  9 32  1  0  0  0  0
 10 11  1  0  0  0  0
 10 33  1  0  0  0  0
 11 12  1  0  0  0  0
 11 13  2  0  0  0  0
 12 14  2  0  0  0  0
 14 15  1  0  0  0  0
 14 20  1  0  0  0  0
 15 16  1  0  0  0  0
 15 34  1  0  0  0  0
 16 17  1  0  0  0  0
 16 21  2  0  0  0  0
 17 18  1  0  0  0  0
 17 35  1  0  0  0  0
 18 12  1  0  0  0  0
 18 19  1  0  0  0  0
 18 36  1  0  0  0  0
 19 22  2  0  0  0  0
 20 37  1  0  0  0  0
 20 38  1  0  0  0  0
 20 39  1  0  0  0  0
 22 23  1  0  0  0  0
 22 40  1  0  0  0  0
 23 24  2  0  0  0  0
 23 41  1  0  0  0  0
 24 25  1  0  0  0  0
 24 27  1  0  0  0  0
 25 26  2  0  0  0  0
 25 42  1  0  0  0  0
 26 19  1  0  0  0  0
 26 43  1  0  0  0  0
M  END
>  <Mol_ID>
4125

>  <Formula>
C19H16FN5O2

>  <MolWeight>
365.3610432

>  <Cat>
S8489

>  <Name>
GSK180736A (GSK180736)

>  <Synonyms>
N/A

>  <Target>
GRK

>  <Form>
free base

>  <CAS>
817194-38-0

>  <URL>
http://selleckchem.com/products/gsk180736a.html

$$$$
