GSK1265744.cdx
 OpenBabel08302519593D

 46 49  0  0  0  0  0  0  0  0999 V2000
    6.9099   -2.5851   -2.7695 C   0  0  0  0  0  0  0  0  0  0  0  0
    7.2844   -1.5911   -1.8774 C   0  0  0  0  0  0  0  0  0  0  0  0
    6.4983   -1.2854   -0.7712 C   0  0  0  0  0  0  0  0  0  0  0  0
    5.3116   -1.9874   -0.5526 C   0  0  0  0  0  0  0  0  0  0  0  0
    4.9150   -3.0023   -1.4389 C   0  0  0  0  0  0  0  0  0  0  0  0
    5.7280   -3.2812   -2.5434 C   0  0  0  0  0  0  0  0  0  0  0  0
    3.6289   -3.7519   -1.2243 C   0  0  0  0  0  0  0  0  0  0  0  0
    3.6246   -4.4238    0.0559 N   0  0  0  0  0  0  0  0  0  0  0  0
    2.7355   -4.1395    1.0567 C   0  0  0  0  0  0  0  0  0  0  0  0
    2.8818   -4.9634    2.2867 C   0  0  0  0  0  0  0  0  0  0  0  0
    3.8972   -6.0279    2.4639 C   0  0  0  0  0  0  0  0  0  0  0  0
    3.8535   -6.8795    3.6909 C   0  0  0  0  0  0  0  0  0  0  0  0
    2.9095   -6.6132    4.6194 C   0  0  0  0  0  0  0  0  0  0  0  0
    2.0161   -5.5198    4.4872 N   0  0  0  0  0  0  0  0  0  0  0  0
    2.0275   -4.7813    3.3079 C   0  0  0  0  0  0  0  0  0  0  0  0
    2.7381   -7.5905    5.7791 C   0  0  0  0  0  0  0  0  0  0  0  0
    1.8432   -7.1970    6.7469 N   0  0  0  0  0  0  0  0  0  0  0  0
    1.3215   -5.8691    6.8414 C   0  0  1  0  0  0  0  0  0  0  0  0
    0.9251   -5.3214    5.4671 C   0  0  0  0  0  0  0  0  0  0  0  0
    5.3708   -4.2375   -3.4124 F   0  0  0  0  0  0  0  0  0  0  0  0
    8.4188   -0.9105   -2.0865 F   0  0  0  0  0  0  0  0  0  0  0  0
    1.8669   -3.2755    0.9615 O   0  0  0  0  0  0  0  0  0  0  0  0
    4.7566   -6.2694    1.6150 O   0  0  0  0  0  0  0  0  0  0  0  0
    1.1604   -8.1154    7.6150 C   0  0  2  0  0  0  0  0  0  0  0  0
    0.0043   -7.2862    8.1532 C   0  0  0  0  0  0  0  0  0  0  0  0
    0.1962   -5.9269    7.7243 O   0  0  0  0  0  0  0  0  0  0  0  0
    2.0368   -8.6883    8.7195 C   0  0  0  0  0  0  0  0  0  0  0  0
    3.2493   -8.7051    5.8041 O   0  0  0  0  0  0  0  0  0  0  0  0
    4.7729   -7.9064    3.7514 O   0  0  0  0  0  0  0  0  0  0  0  0
    7.5273   -2.8134   -3.6300 H   0  0  0  0  0  0  0  0  0  0  0  0
    6.8118   -0.5009   -0.0892 H   0  0  0  0  0  0  0  0  0  0  0  0
    4.6934   -1.7414    0.3093 H   0  0  0  0  0  0  0  0  0  0  0  0
    2.7825   -3.0629   -1.3118 H   0  0  0  0  0  0  0  0  0  0  0  0
    3.4964   -4.5337   -1.9803 H   0  0  0  0  0  0  0  0  0  0  0  0
    4.3263   -5.1483    0.2072 H   0  0  0  0  0  0  0  0  0  0  0  0
    1.2455   -4.0260    3.2503 H   0  0  0  0  0  0  0  0  0  0  0  0
    2.0872   -5.2320    7.2994 H   0  0  0  0  0  0  0  0  0  0  0  0
    0.0220   -5.8278    5.1046 H   0  0  0  0  0  0  0  0  0  0  0  0
    0.6724   -4.2587    5.5647 H   0  0  0  0  0  0  0  0  0  0  0  0
    0.7803   -8.9483    7.0113 H   0  0  0  0  0  0  0  0  0  0  0  0
   -0.0792   -7.3058    9.2429 H   0  0  0  0  0  0  0  0  0  0  0  0
   -0.9490   -7.6323    7.7363 H   0  0  0  0  0  0  0  0  0  0  0  0
    1.4502   -9.3501    9.3660 H   0  0  0  0  0  0  0  0  0  0  0  0
    2.8604   -9.2793    8.3056 H   0  0  0  0  0  0  0  0  0  0  0  0
    2.4743   -7.8987    9.3386 H   0  0  0  0  0  0  0  0  0  0  0  0
    5.2689   -7.8771    2.9080 H   0  0  0  0  0  0  0  0  0  0  0  0
  1  2  2  0  0  0  0
  1 30  1  0  0  0  0
  2  3  1  0  0  0  0
  2 21  1  0  0  0  0
  3  4  2  0  0  0  0
  3 31  1  0  0  0  0
  4  5  1  0  0  0  0
  4 32  1  0  0  0  0
  5  6  2  0  0  0  0
  5  7  1  0  0  0  0
  6  1  1  0  0  0  0
  6 20  1  0  0  0  0
  7  8  1  0  0  0  0
  7 33  1  0  0  0  0
  7 34  1  0  0  0  0
  8  9  1  0  0  0  0
  8 35  1  0  0  0  0
  9 10  1  0  0  0  0
  9 22  2  0  0  0  0
 10 11  1  0  0  0  0
 11 12  1  0  0  0  0
 11 23  2  0  0  0  0
 12 13  2  0  0  0  0
 12 29  1  0  0  0  0
 13 14  1  0  0  0  0
 13 16  1  0  0  0  0
 14 15  1  0  0  0  0
 15 10  2  0  0  0  0
 15 36  1  0  0  0  0
 16 17  1  0  0  0  0
 16 28  2  0  0  0  0
 17 18  1  0  0  0  0
 17 24  1  0  0  0  0
 18 19  1  0  0  0  0
 18 37  1  1  0  0  0
 19 14  1  0  0  0  0
 19 38  1  0  0  0  0
 19 39  1  0  0  0  0
 24 25  1  0  0  0  0
 24 27  1  0  0  0  0
 24 40  1  6  0  0  0
 25 26  1  0  0  0  0
 25 41  1  0  0  0  0
 25 42  1  0  0  0  0
 26 18  1  0  0  0  0
 27 43  1  0  0  0  0
 27 44  1  0  0  0  0
 27 45  1  0  0  0  0
 29 46  1  0  0  0  0
M  END
>  <Mol_ID>
2556

>  <Formula>
C19H17F2N3O5

>  <MolWeight>
405.3521864

>  <Cat>
S7766

>  <Name>
Cabotegravir (GSK1265744)

>  <Synonyms>
GSK744, S/GSK1265744

>  <Target>
Integrase

>  <Form>
free base

>  <CAS>
1051375-10-0

>  <URL>
http://selleckchem.com/products/cabotegravir-gsk744-gsk1265744.html

$$$$
