GSK2200150A
 OpenBabel08302521323D

 48 52  0  0  0  0  0  0  0  0999 V2000
    1.2767   -0.4594   -0.6548 N   0  0  0  0  0  0  0  0  0  0  0  0
    2.1071   -1.4634   -1.3289 C   0  0  0  0  0  0  0  0  0  0  0  0
    3.1437   -2.0913   -0.3851 C   0  0  0  0  0  0  0  0  0  0  0  0
    2.4992   -2.6689    0.9023 C   0  0  0  0  0  0  0  0  0  0  0  0
    0.9720   -2.4803    0.8719 C   0  0  0  0  0  0  0  0  0  0  0  0
    0.5542   -1.0545    0.4838 C   0  0  0  0  0  0  0  0  0  0  0  0
    3.0987   -2.1073    2.2058 C   0  0  0  0  0  0  0  0  0  0  0  0
    3.6855   -2.9375    3.1377 C   0  0  0  0  0  0  0  0  0  0  0  0
    3.7680   -4.4175    2.9866 C   0  0  0  0  0  0  0  0  0  0  0  0
    2.6848   -4.8507    1.9958 C   0  0  0  0  0  0  0  0  0  0  0  0
    2.7689   -4.1039    0.7792 O   0  0  0  0  0  0  0  0  0  0  0  0
    3.0522   -0.7776    2.7371 C   0  0  0  0  0  0  0  0  0  0  0  0
    3.6749   -0.6473    3.9589 C   0  0  0  0  0  0  0  0  0  0  0  0
    4.2889   -2.1390    4.5109 S   0  0  0  0  0  0  0  0  0  0  0  0
    2.0855    0.7442   -0.3626 C   0  0  0  0  0  0  0  0  0  0  0  0
   -0.3652    4.7233    2.8470 O   0  0  0  0  0  0  0  0  0  0  0  0
   -1.7770    4.5023    2.9452 C   0  0  0  0  0  0  0  0  0  0  0  0
   -2.3928    4.4390    1.5571 C   0  0  0  0  0  0  0  0  0  0  0  0
   -1.8964    3.3165    0.8218 O   0  0  0  0  0  0  0  0  0  0  0  0
   -0.5543    3.1353    1.0111 C   0  0  0  0  0  0  0  0  0  0  0  0
    0.1933    3.8204    1.9759 C   0  0  0  0  0  0  0  0  0  0  0  0
    0.0584    2.1681    0.2175 C   0  0  0  0  0  0  0  0  0  0  0  0
    1.4116    1.8646    0.3981 C   0  0  0  0  0  0  0  0  0  0  0  0
    2.1664    2.6214    1.3160 C   0  0  0  0  0  0  0  0  0  0  0  0
    1.5576    3.5948    2.1071 C   0  0  0  0  0  0  0  0  0  0  0  0
    2.6070   -1.0216   -2.1998 H   0  0  0  0  0  0  0  0  0  0  0  0
    1.4586   -2.2448   -1.7491 H   0  0  0  0  0  0  0  0  0  0  0  0
    3.9289   -1.3652   -0.1472 H   0  0  0  0  0  0  0  0  0  0  0  0
    3.6556   -2.8803   -0.9528 H   0  0  0  0  0  0  0  0  0  0  0  0
    0.5261   -2.7361    1.8417 H   0  0  0  0  0  0  0  0  0  0  0  0
    0.5314   -3.1946    0.1625 H   0  0  0  0  0  0  0  0  0  0  0  0
    0.5664   -0.4211    1.3751 H   0  0  0  0  0  0  0  0  0  0  0  0
   -0.5046   -1.1034    0.1959 H   0  0  0  0  0  0  0  0  0  0  0  0
    3.6152   -4.9305    3.9424 H   0  0  0  0  0  0  0  0  0  0  0  0
    4.7605   -4.6799    2.6031 H   0  0  0  0  0  0  0  0  0  0  0  0
    1.6790   -4.7491    2.4176 H   0  0  0  0  0  0  0  0  0  0  0  0
    2.8299   -5.9052    1.7416 H   0  0  0  0  0  0  0  0  0  0  0  0
    2.5580    0.0631    2.2798 H   0  0  0  0  0  0  0  0  0  0  0  0
    3.7700    0.2470    4.5604 H   0  0  0  0  0  0  0  0  0  0  0  0
    2.9808    0.4645    0.1976 H   0  0  0  0  0  0  0  0  0  0  0  0
    2.4450    1.1705   -1.3084 H   0  0  0  0  0  0  0  0  0  0  0  0
   -2.2044    5.3333    3.5146 H   0  0  0  0  0  0  0  0  0  0  0  0
   -1.9512    3.5750    3.5084 H   0  0  0  0  0  0  0  0  0  0  0  0
   -3.4785    4.3244    1.6327 H   0  0  0  0  0  0  0  0  0  0  0  0
   -2.1805    5.3489    0.9831 H   0  0  0  0  0  0  0  0  0  0  0  0
   -0.5338    1.6244   -0.5183 H   0  0  0  0  0  0  0  0  0  0  0  0
    3.2287    2.4234    1.4538 H   0  0  0  0  0  0  0  0  0  0  0  0
    2.1371    4.1425    2.8451 H   0  0  0  0  0  0  0  0  0  0  0  0
  1  2  1  0  0  0  0
  1  6  1  0  0  0  0
  1 15  1  0  0  0  0
  2  3  1  0  0  0  0
  2 26  1  0  0  0  0
  2 27  1  0  0  0  0
  3  4  1  0  0  0  0
  3 28  1  0  0  0  0
  3 29  1  0  0  0  0
  4  5  1  0  0  0  0
  5  6  1  0  0  0  0
  5 30  1  0  0  0  0
  5 31  1  0  0  0  0
  6 32  1  0  0  0  0
  6 33  1  0  0  0  0
  7  8  2  0  0  0  0
  7  4  1  0  0  0  0
  8  9  1  0  0  0  0
  9 10  1  0  0  0  0
  9 34  1  0  0  0  0
  9 35  1  0  0  0  0
 10 11  1  0  0  0  0
 10 36  1  0  0  0  0
 10 37  1  0  0  0  0
 11  4  1  0  0  0  0
 12 13  2  0  0  0  0
 12  7  1  0  0  0  0
 12 38  1  0  0  0  0
 13 14  1  0  0  0  0
 13 39  1  0  0  0  0
 14  8  1  0  0  0  0
 15 23  1  0  0  0  0
 15 40  1  0  0  0  0
 15 41  1  0  0  0  0
 16 17  1  0  0  0  0
 16 21  1  0  0  0  0
 17 18  1  0  0  0  0
 17 42  1  0  0  0  0
 17 43  1  0  0  0  0
 18 19  1  0  0  0  0
 18 44  1  0  0  0  0
 18 45  1  0  0  0  0
 19 20  1  0  0  0  0
 20 21  2  0  0  0  0
 22 23  2  0  0  0  0
 22 20  1  0  0  0  0
 22 46  1  0  0  0  0
 23 24  1  0  0  0  0
 24 25  2  0  0  0  0
 24 47  1  0  0  0  0
 25 21  1  0  0  0  0
 25 48  1  0  0  0  0
M  END
>  <Mol_ID>
6163

>  <Formula>
C20H23NO3S

>  <MolWeight>
357.46652

>  <Cat>
S0423

>  <Name>
GSK2200150A

>  <Synonyms>
N/A

>  <Target>
Bacterial

>  <Form>
free base

>  <CAS>
1443138-53-1

>  <URL>
http://www.selleckchem.com/products/gsk2200150a.html

$$$$
