GSK2656157.cdx
 OpenBabel08302519583D

 52 56  0  0  0  0  0  0  0  0999 V2000
   -1.9747   -0.6347   -0.0867 N   0  0  0  0  0  0  0  0  0  0  0  0
   -1.7771    0.6826   -0.0423 C   0  0  0  0  0  0  0  0  0  0  0  0
   -0.6016    1.3484   -0.0016 N   0  0  0  0  0  0  0  0  0  0  0  0
    0.4442    0.5144   -0.0845 C   0  0  0  0  0  0  0  0  0  0  0  0
    0.3959   -0.8664   -0.1932 C   0  0  0  0  0  0  0  0  0  0  0  0
   -0.8953   -1.4367   -0.1282 C   0  0  0  0  0  0  0  0  0  0  0  0
    1.7449    0.8997   -0.0382 N   0  0  0  0  0  0  0  0  0  0  0  0
    2.5723   -0.1956   -0.1861 C   0  0  0  0  0  0  0  0  0  0  0  0
    1.7728   -1.3112   -0.3590 C   0  0  0  0  0  0  0  0  0  0  0  0
   -1.1869   -2.8006   -0.0742 N   0  0  0  0  0  0  0  0  0  0  0  0
    2.2004    2.2627    0.1459 C   0  0  0  0  0  0  0  0  0  0  0  0
    2.2516   -2.6765   -0.5885 C   0  0  0  0  0  0  0  0  0  0  0  0
    3.5267   -3.1805   -0.3467 C   0  0  0  0  0  0  0  0  0  0  0  0
    3.6877   -4.5567   -0.4036 C   0  0  0  0  0  0  0  0  0  0  0  0
    2.5961   -5.3897   -0.2064 C   0  0  0  0  0  0  0  0  0  0  0  0
    1.4277   -4.9584   -0.7839 C   0  0  0  0  0  0  0  0  0  0  0  0
    1.3246   -3.6039   -1.0882 C   0  0  0  0  0  0  0  0  0  0  0  0
    4.5756   -2.4003   -0.0533 F   0  0  0  0  0  0  0  0  0  0  0  0
    4.6898   -5.3623   -1.2285 C   0  0  0  0  0  0  0  0  0  0  0  0
    3.9212   -6.7154   -1.3872 C   0  0  0  0  0  0  0  0  0  0  0  0
    3.0336   -6.7323   -0.2162 N   0  0  0  0  0  0  0  0  0  0  0  0
    3.7078   -7.1877    0.9469 C   0  0  0  0  0  0  0  0  0  0  0  0
    4.7897   -7.7849    0.8852 O   0  0  0  0  0  0  0  0  0  0  0  0
    3.0868   -6.9000    2.3048 C   0  0  0  0  0  0  0  0  0  0  0  0
    2.4658   -8.1357    2.8928 C   0  0  0  0  0  0  0  0  0  0  0  0
    3.2260   -9.2778    3.1373 C   0  0  0  0  0  0  0  0  0  0  0  0
    2.6063  -10.3910    3.6880 C   0  0  0  0  0  0  0  0  0  0  0  0
    1.2496  -10.3360    3.9826 C   0  0  0  0  0  0  0  0  0  0  0  0
    0.5507   -9.1675    3.7022 C   0  0  0  0  0  0  0  0  0  0  0  0
    1.1424   -8.0708    3.1732 N   0  0  0  0  0  0  0  0  0  0  0  0
   -0.9238   -9.0704    3.9404 C   0  0  0  0  0  0  0  0  0  0  0  0
   -2.6832    1.2937   -0.0363 H   0  0  0  0  0  0  0  0  0  0  0  0
    3.6493   -0.0738   -0.1668 H   0  0  0  0  0  0  0  0  0  0  0  0
   -0.5405   -3.3303    0.4997 H   0  0  0  0  0  0  0  0  0  0  0  0
   -2.1651   -2.9467    0.1359 H   0  0  0  0  0  0  0  0  0  0  0  0
    2.7111    2.3363    1.1075 H   0  0  0  0  0  0  0  0  0  0  0  0
    2.8760    2.5190   -0.6746 H   0  0  0  0  0  0  0  0  0  0  0  0
    1.3459    2.9469    0.1342 H   0  0  0  0  0  0  0  0  0  0  0  0
    0.6539   -5.6490   -1.0978 H   0  0  0  0  0  0  0  0  0  0  0  0
    0.4744   -3.2586   -1.6715 H   0  0  0  0  0  0  0  0  0  0  0  0
    5.6435   -5.4933   -0.7200 H   0  0  0  0  0  0  0  0  0  0  0  0
    4.8191   -4.9235   -2.2236 H   0  0  0  0  0  0  0  0  0  0  0  0
    4.5618   -7.5978   -1.4534 H   0  0  0  0  0  0  0  0  0  0  0  0
    3.2651   -6.7154   -2.2730 H   0  0  0  0  0  0  0  0  0  0  0  0
    3.8867   -6.5523    2.9740 H   0  0  0  0  0  0  0  0  0  0  0  0
    2.3569   -6.0863    2.2667 H   0  0  0  0  0  0  0  0  0  0  0  0
    4.2833   -9.3110    2.8910 H   0  0  0  0  0  0  0  0  0  0  0  0
    3.1772  -11.2965    3.8773 H   0  0  0  0  0  0  0  0  0  0  0  0
    0.7507  -11.1976    4.4139 H   0  0  0  0  0  0  0  0  0  0  0  0
   -1.1381   -8.2554    4.6383 H   0  0  0  0  0  0  0  0  0  0  0  0
   -1.4327   -8.8691    2.9926 H   0  0  0  0  0  0  0  0  0  0  0  0
   -1.3299   -9.9979    4.3558 H   0  0  0  0  0  0  0  0  0  0  0  0
  1  2  2  0  0  0  0
  2  3  1  0  0  0  0
  2 32  1  0  0  0  0
  3  4  2  0  0  0  0
  4  5  1  0  0  0  0
  4  7  1  0  0  0  0
  5  6  2  0  0  0  0
  6  1  1  0  0  0  0
  6 10  1  0  0  0  0
  7  8  1  0  0  0  0
  7 11  1  0  0  0  0
  8  9  2  0  0  0  0
  8 33  1  0  0  0  0
  9  5  1  0  0  0  0
  9 12  1  0  0  0  0
 10 34  1  0  0  0  0
 10 35  1  0  0  0  0
 11 36  1  0  0  0  0
 11 37  1  0  0  0  0
 11 38  1  0  0  0  0
 12 13  2  0  0  0  0
 13 14  1  0  0  0  0
 13 18  1  0  0  0  0
 14 15  2  0  0  0  0
 14 19  1  0  0  0  0
 15 16  1  0  0  0  0
 16 17  2  0  0  0  0
 16 39  1  0  0  0  0
 17 12  1  0  0  0  0
 17 40  1  0  0  0  0
 19 20  1  0  0  0  0
 19 41  1  0  0  0  0
 19 42  1  0  0  0  0
 20 21  1  0  0  0  0
 20 43  1  0  0  0  0
 20 44  1  0  0  0  0
 21 15  1  0  0  0  0
 21 22  1  0  0  0  0
 22 23  2  0  0  0  0
 22 24  1  0  0  0  0
 24 25  1  0  0  0  0
 24 45  1  0  0  0  0
 24 46  1  0  0  0  0
 25 26  2  0  0  0  0
 26 27  1  0  0  0  0
 26 47  1  0  0  0  0
 27 28  2  0  0  0  0
 27 48  1  0  0  0  0
 28 29  1  0  0  0  0
 28 49  1  0  0  0  0
 29 30  2  0  0  0  0
 29 31  1  0  0  0  0
 30 25  1  0  0  0  0
 31 50  1  0  0  0  0
 31 51  1  0  0  0  0
 31 52  1  0  0  0  0
M  END
>  <Mol_ID>
2354

>  <Formula>
C23H21FN6O

>  <MolWeight>
416.4508432

>  <Cat>
S7033

>  <Name>
GSK2656157

>  <Synonyms>
N/A

>  <Target>
Apoptosis related,Autophagy,PERK

>  <Form>
free base

>  <CAS>
1337532-29-2

>  <URL>
http://selleckchem.com/products/gsk2656157.html

$$$$
