GSK2830371.cdx
 OpenBabel08302519583D

 60 63  0  0  0  0  0  0  0  0999 V2000
   -5.4896   -5.5909    4.7752 C   0  0  0  0  0  0  0  0  0  0  0  0
   -5.8984   -4.2756    4.6777 C   0  0  0  0  0  0  0  0  0  0  0  0
   -5.3447   -3.6181    3.5467 C   0  0  0  0  0  0  0  0  0  0  0  0
   -4.5099   -4.4331    2.8087 C   0  0  0  0  0  0  0  0  0  0  0  0
   -4.4269   -6.0062    3.4930 S   0  0  0  0  0  0  0  0  0  0  0  0
   -5.8377   -6.5603    5.8756 C   0  0  0  0  0  0  0  0  0  0  0  0
   -7.0616   -7.3380    5.6568 N   0  0  0  0  0  0  0  0  0  0  0  0
   -3.8137   -4.0466    1.5912 C   0  0  0  0  0  0  0  0  0  0  0  0
   -2.6857   -4.7645    1.2841 N   0  0  0  0  0  0  0  0  0  0  0  0
   -1.9250   -4.5884    0.0517 C   0  0  2  0  0  0  0  0  0  0  0  0
   -0.9695   -3.3690    0.1084 C   0  0  0  0  0  0  0  0  0  0  0  0
   -7.4272   -8.2614    6.6591 C   0  0  0  0  0  0  0  0  0  0  0  0
   -7.1768   -7.9905    8.0164 C   0  0  0  0  0  0  0  0  0  0  0  0
   -7.5895   -8.8568    9.0261 C   0  0  0  0  0  0  0  0  0  0  0  0
   -8.2926   -9.9812    8.6641 C   0  0  0  0  0  0  0  0  0  0  0  0
   -8.5978  -10.2817    7.3886 N   0  0  0  0  0  0  0  0  0  0  0  0
   -8.1808   -9.4288    6.4051 C   0  0  0  0  0  0  0  0  0  0  0  0
   -8.5964   -9.8777    5.0344 C   0  0  0  0  0  0  0  0  0  0  0  0
   -4.1746   -3.1058    0.8820 O   0  0  0  0  0  0  0  0  0  0  0  0
   -1.4878   -2.0978    0.0172 N   0  0  0  0  0  0  0  0  0  0  0  0
   -0.6151   -0.9470    0.0541 C   0  0  0  0  0  0  0  0  0  0  0  0
   -2.7577   -4.7672   -1.2359 C   0  0  0  0  0  0  0  0  0  0  0  0
   -3.6142   -6.0557   -1.2151 C   0  0  0  0  0  0  0  0  0  0  0  0
   -2.8193   -7.3369   -0.9475 C   0  0  0  0  0  0  0  0  0  0  0  0
   -3.6962   -8.4755   -1.4592 C   0  0  0  0  0  0  0  0  0  0  0  0
   -4.7405   -7.8347   -2.3696 C   0  0  0  0  0  0  0  0  0  0  0  0
   -4.3120   -6.3784   -2.5360 C   0  0  0  0  0  0  0  0  0  0  0  0
    0.2465   -3.5616    0.2852 O   0  0  0  0  0  0  0  0  0  0  0  0
   -0.3321   -0.2355    1.3537 C   0  0  0  0  0  0  0  0  0  0  0  0
   -1.0958    0.4608    0.2679 C   0  0  0  0  0  0  0  0  0  0  0  0
   -6.5576   -3.8028    5.3973 H   0  0  0  0  0  0  0  0  0  0  0  0
   -5.5318   -2.5831    3.2848 H   0  0  0  0  0  0  0  0  0  0  0  0
   -4.9948   -7.2395    6.0559 H   0  0  0  0  0  0  0  0  0  0  0  0
   -5.9523   -5.9439    6.7751 H   0  0  0  0  0  0  0  0  0  0  0  0
   -7.0752   -7.7352    4.7238 H   0  0  0  0  0  0  0  0  0  0  0  0
   -2.3795   -5.4786    1.9325 H   0  0  0  0  0  0  0  0  0  0  0  0
   -1.2270   -5.4383    0.0628 H   0  0  0  0  0  0  0  0  0  0  0  0
   -6.6645   -7.0880    8.3292 H   0  0  0  0  0  0  0  0  0  0  0  0
   -7.3748   -8.6415   10.0659 H   0  0  0  0  0  0  0  0  0  0  0  0
   -8.6480  -10.6866    9.4092 H   0  0  0  0  0  0  0  0  0  0  0  0
   -8.2946  -10.9217    4.8903 H   0  0  0  0  0  0  0  0  0  0  0  0
   -9.6861   -9.8218    4.9407 H   0  0  0  0  0  0  0  0  0  0  0  0
   -8.1529   -9.3011    4.2222 H   0  0  0  0  0  0  0  0  0  0  0  0
   -2.4973   -1.9704   -0.0300 H   0  0  0  0  0  0  0  0  0  0  0  0
    0.2375   -1.0554   -0.6167 H   0  0  0  0  0  0  0  0  0  0  0  0
   -3.4111   -3.9043   -1.4100 H   0  0  0  0  0  0  0  0  0  0  0  0
   -2.0737   -4.7951   -2.0945 H   0  0  0  0  0  0  0  0  0  0  0  0
   -4.3909   -5.9581   -0.4449 H   0  0  0  0  0  0  0  0  0  0  0  0
   -1.8720   -7.3273   -1.4992 H   0  0  0  0  0  0  0  0  0  0  0  0
   -2.5872   -7.4667    0.1145 H   0  0  0  0  0  0  0  0  0  0  0  0
   -3.0924   -9.2143   -1.9971 H   0  0  0  0  0  0  0  0  0  0  0  0
   -4.1841   -8.9983   -0.6286 H   0  0  0  0  0  0  0  0  0  0  0  0
   -4.8176   -8.3533   -3.3304 H   0  0  0  0  0  0  0  0  0  0  0  0
   -5.7250   -7.8879   -1.8889 H   0  0  0  0  0  0  0  0  0  0  0  0
   -5.1714   -5.7277   -2.7244 H   0  0  0  0  0  0  0  0  0  0  0  0
   -3.6206   -6.2879   -3.3819 H   0  0  0  0  0  0  0  0  0  0  0  0
   -0.8739   -0.5275    2.2452 H   0  0  0  0  0  0  0  0  0  0  0  0
    0.6901    0.0746    1.5442 H   0  0  0  0  0  0  0  0  0  0  0  0
   -0.5860    1.2601   -0.2614 H   0  0  0  0  0  0  0  0  0  0  0  0
   -2.1479    0.6531    0.4438 H   0  0  0  0  0  0  0  0  0  0  0  0
  1  2  2  0  0  0  0
  1  6  1  0  0  0  0
  2  3  1  0  0  0  0
  2 31  1  0  0  0  0
  3  4  2  0  0  0  0
  3 32  1  0  0  0  0
  4  5  1  0  0  0  0
  4  8  1  0  0  0  0
  5  1  1  0  0  0  0
  6  7  1  0  0  0  0
  6 33  1  0  0  0  0
  6 34  1  0  0  0  0
  7 12  1  0  0  0  0
  7 35  1  0  0  0  0
  8  9  1  0  0  0  0
  8 19  2  0  0  0  0
  9 36  1  0  0  0  0
 10 22  1  0  0  0  0
 10 37  1  6  0  0  0
 10 11  1  0  0  0  0
 10  9  1  0  0  0  0
 11 20  1  0  0  0  0
 11 28  2  0  0  0  0
 12 13  2  0  0  0  0
 13 14  1  0  0  0  0
 13 38  1  0  0  0  0
 14 15  2  0  0  0  0
 14 39  1  0  0  0  0
 15 16  1  0  0  0  0
 15 40  1  0  0  0  0
 16 17  2  0  0  0  0
 17 12  1  0  0  0  0
 17 18  1  0  0  0  0
 18 41  1  0  0  0  0
 18 42  1  0  0  0  0
 18 43  1  0  0  0  0
 20 21  1  0  0  0  0
 20 44  1  0  0  0  0
 21 29  1  0  0  0  0
 21 45  1  0  0  0  0
 22 23  1  0  0  0  0
 22 46  1  0  0  0  0
 22 47  1  0  0  0  0
 23 24  1  0  0  0  0
 23 48  1  0  0  0  0
 24 25  1  0  0  0  0
 24 49  1  0  0  0  0
 24 50  1  0  0  0  0
 25 26  1  0  0  0  0
 25 51  1  0  0  0  0
 25 52  1  0  0  0  0
 26 27  1  0  0  0  0
 26 53  1  0  0  0  0
 26 54  1  0  0  0  0
 27 23  1  0  0  0  0
 27 55  1  0  0  0  0
 27 56  1  0  0  0  0
 29 30  1  0  0  0  0
 29 57  1  0  0  0  0
 29 58  1  0  0  0  0
 30 21  1  0  0  0  0
 30 59  1  0  0  0  0
 30 60  1  0  0  0  0
M  END
>  <Mol_ID>
2531

>  <Formula>
C23H29ClN4O2S

>  <MolWeight>
461.01996

>  <Cat>
S7573

>  <Name>
GSK2830371

>  <Synonyms>
N/A

>  <Target>
phosphatase

>  <Form>
free base

>  <CAS>
1404456-53-6

>  <URL>
http://selleckchem.com/products/gsk2830371.html

$$$$
