GSK2983559 active metabolite
 OpenBabel08302521353D

 53 56  0  0  0  0  0  0  0  0999 V2000
   -1.1949   -2.7341    1.3340 C   0  0  0  0  0  0  0  0  0  0  0  0
    0.0029   -1.9186    1.8073 C   0  0  0  0  0  0  0  0  0  0  0  0
    1.0864   -2.7421    1.4526 O   0  0  0  0  0  0  0  0  0  0  0  0
    4.9767   -4.8374    2.0170 N   0  0  0  0  0  0  0  0  0  0  0  0
    6.2959   -4.9268    2.0980 C   0  0  0  0  0  0  0  0  0  0  0  0
    7.1269   -3.9035    1.9339 N   0  0  0  0  0  0  0  0  0  0  0  0
    6.5901   -2.7030    1.6136 C   0  0  0  0  0  0  0  0  0  0  0  0
    5.1982   -2.4778    1.4834 C   0  0  0  0  0  0  0  0  0  0  0  0
    4.4720   -1.2713    1.1212 C   0  0  0  0  0  0  0  0  0  0  0  0
    3.0435   -1.2098    1.0021 C   0  0  0  0  0  0  0  0  0  0  0  0
    2.3711   -2.3748    1.3650 C   0  0  0  0  0  0  0  0  0  0  0  0
    3.1101   -3.5431    1.6746 C   0  0  0  0  0  0  0  0  0  0  0  0
    4.4658   -3.6377    1.7250 C   0  0  0  0  0  0  0  0  0  0  0  0
    2.3057    0.4231    0.6017 S   0  0  0  0  0  0  0  0  0  0  0  0
    1.4908    0.7684    1.7540 O   0  0  0  0  0  0  0  0  0  0  0  0
    3.4622    1.2653    0.3211 O   0  0  0  0  0  0  0  0  0  0  0  0
    1.2604    0.5254   -0.9241 C   0  0  0  0  0  0  0  0  0  0  0  0
   -0.1816    0.0227   -0.7867 C   0  0  0  0  0  0  0  0  0  0  0  0
    1.0924    2.0238   -1.3092 C   0  0  0  0  0  0  0  0  0  0  0  0
    1.9334   -0.2005   -2.0904 C   0  0  0  0  0  0  0  0  0  0  0  0
    7.5041   -1.6359    1.4345 N   0  0  0  0  0  0  0  0  0  0  0  0
   12.9408   -2.4245   -0.7902 S   0  0  0  0  0  0  0  0  0  0  0  0
   12.1802   -3.7252   -1.6034 C   0  0  0  0  0  0  0  0  0  0  0  0
   10.9033   -3.9080   -1.3497 N   0  0  0  0  0  0  0  0  0  0  0  0
   10.4776   -2.9566   -0.4392 C   0  0  0  0  0  0  0  0  0  0  0  0
   11.4486   -2.0519   -0.0114 C   0  0  0  0  0  0  0  0  0  0  0  0
    9.1702   -2.8257    0.0668 C   0  0  0  0  0  0  0  0  0  0  0  0
    8.8443   -1.8214    0.9994 C   0  0  0  0  0  0  0  0  0  0  0  0
    9.8400   -0.9230    1.3870 C   0  0  0  0  0  0  0  0  0  0  0  0
   11.1515   -1.0295    0.9026 C   0  0  0  0  0  0  0  0  0  0  0  0
   -0.9425   -3.2551    0.0183 O   0  0  0  0  0  0  0  0  0  0  0  0
   -2.1083   -2.1389    1.3038 H   0  0  0  0  0  0  0  0  0  0  0  0
   -1.3379   -3.6005    1.9864 H   0  0  0  0  0  0  0  0  0  0  0  0
    0.0608   -0.9916    1.2789 H   0  0  0  0  0  0  0  0  0  0  0  0
   -0.0344   -1.7050    2.8786 H   0  0  0  0  0  0  0  0  0  0  0  0
    6.7267   -5.8941    2.3144 H   0  0  0  0  0  0  0  0  0  0  0  0
    5.0677   -0.3712    0.9436 H   0  0  0  0  0  0  0  0  0  0  0  0
    2.5473   -4.4563    1.9185 H   0  0  0  0  0  0  0  0  0  0  0  0
   -0.6824    0.4265    0.1019 H   0  0  0  0  0  0  0  0  0  0  0  0
   -0.8063    0.3333   -1.6350 H   0  0  0  0  0  0  0  0  0  0  0  0
   -0.2200   -1.0650   -0.7919 H   0  0  0  0  0  0  0  0  0  0  0  0
    2.0369    2.4963   -1.5889 H   0  0  0  0  0  0  0  0  0  0  0  0
    0.4159    2.1350   -2.1703 H   0  0  0  0  0  0  0  0  0  0  0  0
    0.6500    2.6024   -0.4865 H   0  0  0  0  0  0  0  0  0  0  0  0
    2.9070    0.2403   -2.3180 H   0  0  0  0  0  0  0  0  0  0  0  0
    2.0780   -1.2587   -1.8603 H   0  0  0  0  0  0  0  0  0  0  0  0
    1.3168   -0.1343   -2.9956 H   0  0  0  0  0  0  0  0  0  0  0  0
    7.4413   -1.0164    2.2372 H   0  0  0  0  0  0  0  0  0  0  0  0
   12.7276   -4.3582   -2.2900 H   0  0  0  0  0  0  0  0  0  0  0  0
    8.4209   -3.5271   -0.2852 H   0  0  0  0  0  0  0  0  0  0  0  0
    9.6106   -0.1208    2.0850 H   0  0  0  0  0  0  0  0  0  0  0  0
   11.9157   -0.3258    1.2191 H   0  0  0  0  0  0  0  0  0  0  0  0
   -0.0464   -3.6533    0.0626 H   0  0  0  0  0  0  0  0  0  0  0  0
  1  2  1  0  0  0  0
  1 31  1  0  0  0  0
  1 32  1  0  0  0  0
  1 33  1  0  0  0  0
  2  3  1  0  0  0  0
  2 34  1  0  0  0  0
  2 35  1  0  0  0  0
  3 11  1  0  0  0  0
  4  5  2  0  0  0  0
  4 13  1  0  0  0  0
  5  6  1  0  0  0  0
  5 36  1  0  0  0  0
  6  7  2  0  0  0  0
  7  8  1  0  0  0  0
  7 21  1  0  0  0  0
  8  9  1  0  0  0  0
  8 13  2  0  0  0  0
  9 10  2  0  0  0  0
  9 37  1  0  0  0  0
 10 11  1  0  0  0  0
 10 14  1  0  0  0  0
 11 12  2  0  0  0  0
 12 13  1  0  0  0  0
 12 38  1  0  0  0  0
 14 15  2  0  0  0  0
 14 16  2  0  0  0  0
 14 17  1  0  0  0  0
 17 18  1  0  0  0  0
 17 19  1  0  0  0  0
 17 20  1  0  0  0  0
 18 39  1  0  0  0  0
 18 40  1  0  0  0  0
 18 41  1  0  0  0  0
 19 42  1  0  0  0  0
 19 43  1  0  0  0  0
 19 44  1  0  0  0  0
 20 45  1  0  0  0  0
 20 46  1  0  0  0  0
 20 47  1  0  0  0  0
 21 28  1  0  0  0  0
 21 48  1  0  0  0  0
 22 23  1  0  0  0  0
 22 26  1  0  0  0  0
 23 24  2  0  0  0  0
 23 49  1  0  0  0  0
 24 25  1  0  0  0  0
 25 26  2  0  0  0  0
 27 28  2  0  0  0  0
 27 25  1  0  0  0  0
 27 50  1  0  0  0  0
 28 29  1  0  0  0  0
 29 30  2  0  0  0  0
 29 51  1  0  0  0  0
 30 26  1  0  0  0  0
 30 52  1  0  0  0  0
 31 53  1  0  0  0  0
M  END
>  <Mol_ID>
6870

>  <Formula>
C21H22N4O4S2

>  <MolWeight>
458.55378

>  <Cat>
E2822

>  <Name>
GSK2983559 active metabolite

>  <Target>
RIP kinase

>  <Form>
Free base

>  <CAS>
1423186-80-4

>  <URL>
http://www.selleckchem.com/products/gsk2983559-active-metabolite.html

$$$$
