GSK2801.cdx
 OpenBabel08302519563D

 47 49  0  0  0  0  0  0  0  0999 V2000
   -2.1123    0.6412   -0.0662 C   0  0  0  0  0  0  0  0  0  0  0  0
   -2.0704   -0.7312    0.4075 C   0  0  0  0  0  0  0  0  0  0  0  0
   -0.8957   -1.3823    0.4193 C   0  0  0  0  0  0  0  0  0  0  0  0
    0.2867   -0.7025    0.1017 N   0  0  0  0  0  0  0  0  0  0  0  0
    0.3086    0.6775   -0.1380 C   0  0  0  0  0  0  0  0  0  0  0  0
   -0.9663    1.3047   -0.3315 C   0  0  0  0  0  0  0  0  0  0  0  0
    1.5798   -1.1795    0.0088 C   0  0  0  0  0  0  0  0  0  0  0  0
    2.3994   -0.0612   -0.0314 C   0  0  0  0  0  0  0  0  0  0  0  0
    1.6274    1.1281   -0.0584 C   0  0  0  0  0  0  0  0  0  0  0  0
    1.9939   -2.5739    0.0072 C   0  0  0  0  0  0  0  0  0  0  0  0
    1.2132   -3.5210    0.1023 O   0  0  0  0  0  0  0  0  0  0  0  0
    3.4750   -2.8442   -0.1687 C   0  0  0  0  0  0  0  0  0  0  0  0
   -3.3943    1.1019   -0.2630 O   0  0  0  0  0  0  0  0  0  0  0  0
   -3.5294    2.1947   -1.1742 C   0  0  0  0  0  0  0  0  0  0  0  0
   -4.9845    2.3251   -1.6131 C   0  0  0  0  0  0  0  0  0  0  0  0
   -5.4874    1.0766   -2.3240 C   0  0  0  0  0  0  0  0  0  0  0  0
    2.0428    2.5475    0.0358 C   0  0  0  0  0  0  0  0  0  0  0  0
    3.2755    3.1049   -0.3844 C   0  0  0  0  0  0  0  0  0  0  0  0
    3.5206    4.4880   -0.2279 C   0  0  0  0  0  0  0  0  0  0  0  0
    2.5762    5.3305    0.3515 C   0  0  0  0  0  0  0  0  0  0  0  0
    1.3876    4.8018    0.8145 C   0  0  0  0  0  0  0  0  0  0  0  0
    1.1443    3.4338    0.6798 C   0  0  0  0  0  0  0  0  0  0  0  0
    4.5924    2.1243   -1.0878 S   0  0  0  0  0  0  0  0  0  0  0  0
    5.9066    3.2020   -1.5703 C   0  0  0  0  0  0  0  0  0  0  0  0
    5.1491    1.3253   -0.0086 O   0  0  0  0  0  0  0  0  0  0  0  0
    4.0824    1.5226   -2.3022 O   0  0  0  0  0  0  0  0  0  0  0  0
   -2.9959   -1.2180    0.6952 H   0  0  0  0  0  0  0  0  0  0  0  0
   -0.8213   -2.4235    0.7057 H   0  0  0  0  0  0  0  0  0  0  0  0
   -0.9807    2.3188   -0.7124 H   0  0  0  0  0  0  0  0  0  0  0  0
    3.4718   -0.1440   -0.0166 H   0  0  0  0  0  0  0  0  0  0  0  0
    3.7923   -2.5517   -1.1737 H   0  0  0  0  0  0  0  0  0  0  0  0
    4.0563   -2.3020    0.5832 H   0  0  0  0  0  0  0  0  0  0  0  0
    3.6738   -3.9116   -0.0351 H   0  0  0  0  0  0  0  0  0  0  0  0
   -3.2139    3.1213   -0.6806 H   0  0  0  0  0  0  0  0  0  0  0  0
   -2.9120    2.0290   -2.0662 H   0  0  0  0  0  0  0  0  0  0  0  0
   -5.6200    2.5137   -0.7410 H   0  0  0  0  0  0  0  0  0  0  0  0
   -5.0775    3.1842   -2.2871 H   0  0  0  0  0  0  0  0  0  0  0  0
   -5.4555    0.2022   -1.6664 H   0  0  0  0  0  0  0  0  0  0  0  0
   -6.5238    1.2181   -2.6460 H   0  0  0  0  0  0  0  0  0  0  0  0
   -4.8834    0.8608   -3.2112 H   0  0  0  0  0  0  0  0  0  0  0  0
    4.4519    4.9507   -0.5351 H   0  0  0  0  0  0  0  0  0  0  0  0
    2.7819    6.3922    0.4641 H   0  0  0  0  0  0  0  0  0  0  0  0
    0.6502    5.4394    1.2961 H   0  0  0  0  0  0  0  0  0  0  0  0
    0.2226    3.0645    1.1249 H   0  0  0  0  0  0  0  0  0  0  0  0
    6.3194    3.6869   -0.6820 H   0  0  0  0  0  0  0  0  0  0  0  0
    6.6890    2.5882   -2.0249 H   0  0  0  0  0  0  0  0  0  0  0  0
    5.5482    3.9294   -2.2987 H   0  0  0  0  0  0  0  0  0  0  0  0
  1  2  1  0  0  0  0
  1 13  1  0  0  0  0
  2  3  2  0  0  0  0
  2 27  1  0  0  0  0
  3  4  1  0  0  0  0
  3 28  1  0  0  0  0
  4  5  1  0  0  0  0
  4  7  1  0  0  0  0
  5  6  1  0  0  0  0
  6  1  2  0  0  0  0
  6 29  1  0  0  0  0
  7  8  2  0  0  0  0
  7 10  1  0  0  0  0
  8  9  1  0  0  0  0
  8 30  1  0  0  0  0
  9  5  2  0  0  0  0
  9 17  1  0  0  0  0
 10 11  2  0  0  0  0
 10 12  1  0  0  0  0
 12 31  1  0  0  0  0
 12 32  1  0  0  0  0
 12 33  1  0  0  0  0
 13 14  1  0  0  0  0
 14 15  1  0  0  0  0
 14 34  1  0  0  0  0
 14 35  1  0  0  0  0
 15 16  1  0  0  0  0
 15 36  1  0  0  0  0
 15 37  1  0  0  0  0
 16 38  1  0  0  0  0
 16 39  1  0  0  0  0
 16 40  1  0  0  0  0
 17 18  2  0  0  0  0
 18 19  1  0  0  0  0
 18 23  1  0  0  0  0
 19 20  2  0  0  0  0
 19 41  1  0  0  0  0
 20 21  1  0  0  0  0
 20 42  1  0  0  0  0
 21 22  2  0  0  0  0
 21 43  1  0  0  0  0
 22 17  1  0  0  0  0
 22 44  1  0  0  0  0
 23 24  1  0  0  0  0
 23 25  2  0  0  0  0
 23 26  2  0  0  0  0
 24 45  1  0  0  0  0
 24 46  1  0  0  0  0
 24 47  1  0  0  0  0
M  END
>  <Mol_ID>
2199

>  <Formula>
C20H21NO4S

>  <MolWeight>
371.45004

>  <Cat>
S7231

>  <Name>
GSK2801

>  <Synonyms>
N/A

>  <Target>
Epigenetic Reader Domain

>  <Form>
free base

>  <CAS>
1619994-68-1

>  <URL>
http://selleckchem.com/products/gsk2801.html

$$$$
