GSK2269557.cdx
 OpenBabel08302520003D

 61 66  0  0  0  0  0  0  0  0999 V2000
   -3.8004   -3.6309    1.5382 C   0  0  0  0  0  0  0  0  0  0  0  0
   -4.3523   -2.6905    0.6757 C   0  0  0  0  0  0  0  0  0  0  0  0
   -3.5275   -2.1620   -0.3209 C   0  0  0  0  0  0  0  0  0  0  0  0
   -2.1859   -2.5277   -0.4824 C   0  0  0  0  0  0  0  0  0  0  0  0
   -1.6282   -3.5133    0.3844 C   0  0  0  0  0  0  0  0  0  0  0  0
   -2.4772   -4.0398    1.3892 C   0  0  0  0  0  0  0  0  0  0  0  0
   -3.8305   -1.2378   -1.2966 N   0  0  0  0  0  0  0  0  0  0  0  0
   -2.7307   -0.9770   -2.0624 C   0  0  0  0  0  0  0  0  0  0  0  0
   -1.6932   -1.7277   -1.5635 C   0  0  0  0  0  0  0  0  0  0  0  0
   -0.2266   -3.9783    0.2434 C   0  0  0  0  0  0  0  0  0  0  0  0
    0.3777   -4.1367   -1.0155 C   0  0  0  0  0  0  0  0  0  0  0  0
    1.7041   -4.5823   -1.0840 C   0  0  0  0  0  0  0  0  0  0  0  0
    2.4479   -4.9519    0.0334 C   0  0  0  0  0  0  0  0  0  0  0  0
    1.8463   -4.8446    1.3026 C   0  0  0  0  0  0  0  0  0  0  0  0
    0.5318   -4.3297    1.3733 C   0  0  0  0  0  0  0  0  0  0  0  0
    2.5300   -4.7639   -2.1618 N   0  0  0  0  0  0  0  0  0  0  0  0
    3.7385   -5.2536   -1.8460 N   0  0  0  0  0  0  0  0  0  0  0  0
    3.6832   -5.3763   -0.5169 C   0  0  0  0  0  0  0  0  0  0  0  0
    2.5058   -5.2758    2.5278 C   0  0  0  0  0  0  0  0  0  0  0  0
    2.0353   -5.2159    3.7620 N   0  0  0  0  0  0  0  0  0  0  0  0
    2.9860   -5.8487    4.5193 C   0  0  0  0  0  0  0  0  0  0  0  0
    4.0138   -6.2748    3.7139 C   0  0  0  0  0  0  0  0  0  0  0  0
    3.7209   -5.9045    2.4290 O   0  0  0  0  0  0  0  0  0  0  0  0
    5.2472   -7.0712    3.9436 C   0  0  0  0  0  0  0  0  0  0  0  0
    6.3183   -6.3090    4.6103 N   0  0  0  0  0  0  0  0  0  0  0  0
    6.8974   -5.2625    3.7413 C   0  0  0  0  0  0  0  0  0  0  0  0
    7.8379   -5.7575    2.6099 C   0  0  0  0  0  0  0  0  0  0  0  0
    8.8548   -6.7550    2.9914 N   0  0  0  0  0  0  0  0  0  0  0  0
    8.2983   -7.7580    3.9070 C   0  0  0  0  0  0  0  0  0  0  0  0
    7.4075   -7.2095    5.0479 C   0  0  0  0  0  0  0  0  0  0  0  0
   10.1803   -6.1932    3.3037 C   0  0  0  0  0  0  0  0  0  0  0  0
   10.2494   -5.2240    4.4856 C   0  0  0  0  0  0  0  0  0  0  0  0
   11.2585   -7.2769    3.4692 C   0  0  0  0  0  0  0  0  0  0  0  0
   -4.4086   -4.0584    2.3317 H   0  0  0  0  0  0  0  0  0  0  0  0
   -5.3855   -2.3771    0.7844 H   0  0  0  0  0  0  0  0  0  0  0  0
   -2.1052   -4.8002    2.0744 H   0  0  0  0  0  0  0  0  0  0  0  0
   -4.7395   -0.8135   -1.4178 H   0  0  0  0  0  0  0  0  0  0  0  0
   -2.7743   -0.2761   -2.8852 H   0  0  0  0  0  0  0  0  0  0  0  0
   -0.6843   -1.7091   -1.9520 H   0  0  0  0  0  0  0  0  0  0  0  0
   -0.1691   -3.9349   -1.9307 H   0  0  0  0  0  0  0  0  0  0  0  0
    0.0906   -4.2213    2.3662 H   0  0  0  0  0  0  0  0  0  0  0  0
    2.3247   -4.5658   -3.1351 H   0  0  0  0  0  0  0  0  0  0  0  0
    4.5513   -5.7672   -0.0034 H   0  0  0  0  0  0  0  0  0  0  0  0
    2.8667   -5.9825    5.5854 H   0  0  0  0  0  0  0  0  0  0  0  0
    4.9558   -7.9037    4.5999 H   0  0  0  0  0  0  0  0  0  0  0  0
    5.5821   -7.5175    3.0006 H   0  0  0  0  0  0  0  0  0  0  0  0
    6.1097   -4.6381    3.3033 H   0  0  0  0  0  0  0  0  0  0  0  0
    7.4537   -4.5794    4.3930 H   0  0  0  0  0  0  0  0  0  0  0  0
    7.2150   -6.2154    1.8311 H   0  0  0  0  0  0  0  0  0  0  0  0
    8.3054   -4.8906    2.1256 H   0  0  0  0  0  0  0  0  0  0  0  0
    7.6896   -8.4393    3.2953 H   0  0  0  0  0  0  0  0  0  0  0  0
    9.0695   -8.4056    4.3329 H   0  0  0  0  0  0  0  0  0  0  0  0
    8.0320   -6.6688    5.7648 H   0  0  0  0  0  0  0  0  0  0  0  0
    6.9917   -8.0537    5.6107 H   0  0  0  0  0  0  0  0  0  0  0  0
   10.4895   -5.6240    2.4159 H   0  0  0  0  0  0  0  0  0  0  0  0
    9.9848   -5.7065    5.4295 H   0  0  0  0  0  0  0  0  0  0  0  0
   11.2670   -4.8314    4.5950 H   0  0  0  0  0  0  0  0  0  0  0  0
    9.6024   -4.3568    4.3337 H   0  0  0  0  0  0  0  0  0  0  0  0
   11.2732   -7.9542    2.6086 H   0  0  0  0  0  0  0  0  0  0  0  0
   12.2518   -6.8183    3.5403 H   0  0  0  0  0  0  0  0  0  0  0  0
   11.1190   -7.8708    4.3779 H   0  0  0  0  0  0  0  0  0  0  0  0
  1  2  2  0  0  0  0
  1 34  1  0  0  0  0
  2  3  1  0  0  0  0
  2 35  1  0  0  0  0
  3  4  2  0  0  0  0
  3  7  1  0  0  0  0
  4  5  1  0  0  0  0
  5  6  2  0  0  0  0
  5 10  1  0  0  0  0
  6  1  1  0  0  0  0
  6 36  1  0  0  0  0
  7  8  1  0  0  0  0
  7 37  1  0  0  0  0
  8  9  2  0  0  0  0
  8 38  1  0  0  0  0
  9  4  1  0  0  0  0
  9 39  1  0  0  0  0
 10 11  2  0  0  0  0
 11 12  1  0  0  0  0
 11 40  1  0  0  0  0
 12 13  2  0  0  0  0
 12 16  1  0  0  0  0
 13 14  1  0  0  0  0
 14 15  2  0  0  0  0
 14 19  1  0  0  0  0
 15 10  1  0  0  0  0
 15 41  1  0  0  0  0
 16 17  1  0  0  0  0
 16 42  1  0  0  0  0
 17 18  2  0  0  0  0
 18 13  1  0  0  0  0
 18 43  1  0  0  0  0
 19 20  2  0  0  0  0
 20 21  1  0  0  0  0
 21 22  2  0  0  0  0
 21 44  1  0  0  0  0
 22 23  1  0  0  0  0
 22 24  1  0  0  0  0
 23 19  1  0  0  0  0
 24 25  1  0  0  0  0
 24 45  1  0  0  0  0
 24 46  1  0  0  0  0
 25 26  1  0  0  0  0
 26 27  1  0  0  0  0
 26 47  1  0  0  0  0
 26 48  1  0  0  0  0
 27 28  1  0  0  0  0
 27 49  1  0  0  0  0
 27 50  1  0  0  0  0
 28 29  1  0  0  0  0
 28 31  1  0  0  0  0
 29 30  1  0  0  0  0
 29 51  1  0  0  0  0
 29 52  1  0  0  0  0
 30 25  1  0  0  0  0
 30 53  1  0  0  0  0
 30 54  1  0  0  0  0
 31 32  1  0  0  0  0
 31 33  1  0  0  0  0
 31 55  1  0  0  0  0
 32 56  1  0  0  0  0
 32 57  1  0  0  0  0
 32 58  1  0  0  0  0
 33 59  1  0  0  0  0
 33 60  1  0  0  0  0
 33 61  1  0  0  0  0
M  END
>  <Mol_ID>
2719

>  <Formula>
C26H28N6O

>  <MolWeight>
440.54012

>  <Cat>
S7937

>  <Name>
Nemiralisib

>  <Synonyms>
GSK2269557

>  <Target>
PI3K

>  <Form>
free base

>  <CAS>
1254036-71-9

>  <URL>
http://selleckchem.com/products/gsk2269557.html

$$$$
