GSK3987
 OpenBabel08302521373D

 49 52  0  0  0  0  0  0  0  0999 V2000
    0.9226    0.1480    0.0272 N   0  0  0  0  0  0  0  0  0  0  0  0
   -0.4047   -2.2515   -3.9053 O   0  0  0  0  0  0  0  0  0  0  0  0
   -1.2236    1.4112   -1.3427 O   0  0  0  0  0  0  0  0  0  0  0  0
   -2.1712    0.0727   -3.7781 C   0  0  0  0  0  0  0  0  0  0  0  0
    5.3519    3.5942   -0.1006 O   0  0  0  0  0  0  0  0  0  0  0  0
    5.6057    4.4794    0.9833 C   0  0  0  0  0  0  0  0  0  0  0  0
    0.5897   -1.4830   -1.8455 C   0  0  0  0  0  0  0  0  0  0  0  0
    0.3542   -0.3746   -1.1233 C   0  0  0  0  0  0  0  0  0  0  0  0
   -0.3676   -1.4457   -2.9866 C   0  0  0  0  0  0  0  0  0  0  0  0
   -0.7767    0.3529   -1.7586 C   0  0  0  0  0  0  0  0  0  0  0  0
   -1.1572   -0.3563   -2.8428 N   0  0  0  0  0  0  0  0  0  0  0  0
    1.5949   -2.5305   -1.5884 C   0  0  0  0  0  0  0  0  0  0  0  0
    2.0285   -2.8218   -0.2826 C   0  0  0  0  0  0  0  0  0  0  0  0
    2.1418   -3.2886   -2.6353 C   0  0  0  0  0  0  0  0  0  0  0  0
    2.9735   -3.8219   -0.0336 C   0  0  0  0  0  0  0  0  0  0  0  0
    3.0828   -4.2956   -2.3876 C   0  0  0  0  0  0  0  0  0  0  0  0
    3.4979   -4.5616   -1.0872 C   0  0  0  0  0  0  0  0  0  0  0  0
    2.0374    1.0341   -0.0346 C   0  0  0  0  0  0  0  0  0  0  0  0
    2.2540    1.9038    1.0447 C   0  0  0  0  0  0  0  0  0  0  0  0
    2.9826    1.0149   -1.0647 C   0  0  0  0  0  0  0  0  0  0  0  0
    3.3418    2.7848    1.0611 C   0  0  0  0  0  0  0  0  0  0  0  0
    4.0695    1.8969   -1.0494 C   0  0  0  0  0  0  0  0  0  0  0  0
    4.2533    2.7881    0.0087 C   0  0  0  0  0  0  0  0  0  0  0  0
   -3.5048   -0.6013   -3.5561 C   0  0  0  0  0  0  0  0  0  0  0  0
   -4.4492   -0.0524   -2.6753 C   0  0  0  0  0  0  0  0  0  0  0  0
   -3.8245   -1.7845   -4.2385 C   0  0  0  0  0  0  0  0  0  0  0  0
   -5.6953   -0.6616   -2.5034 C   0  0  0  0  0  0  0  0  0  0  0  0
   -5.0707   -2.3897   -4.0665 C   0  0  0  0  0  0  0  0  0  0  0  0
   -6.0069   -1.8269   -3.2012 C   0  0  0  0  0  0  0  0  0  0  0  0
    0.1944    0.6469    0.5489 H   0  0  0  0  0  0  0  0  0  0  0  0
   -2.2983    1.1584   -3.7052 H   0  0  0  0  0  0  0  0  0  0  0  0
   -1.8193   -0.1378   -4.7956 H   0  0  0  0  0  0  0  0  0  0  0  0
    4.7870    5.1961    1.1090 H   0  0  0  0  0  0  0  0  0  0  0  0
    5.7914    3.9250    1.9094 H   0  0  0  0  0  0  0  0  0  0  0  0
    6.5108    5.0472    0.7475 H   0  0  0  0  0  0  0  0  0  0  0  0
    1.6361   -2.2750    0.5714 H   0  0  0  0  0  0  0  0  0  0  0  0
    1.8500   -3.1114   -3.6678 H   0  0  0  0  0  0  0  0  0  0  0  0
    3.2944   -4.0213    0.9854 H   0  0  0  0  0  0  0  0  0  0  0  0
    3.4870   -4.8706   -3.2159 H   0  0  0  0  0  0  0  0  0  0  0  0
    4.2272   -5.3447   -0.8952 H   0  0  0  0  0  0  0  0  0  0  0  0
    1.5633    1.9169    1.8844 H   0  0  0  0  0  0  0  0  0  0  0  0
    2.8956    0.3269   -1.8995 H   0  0  0  0  0  0  0  0  0  0  0  0
    3.4425    3.4513    1.9106 H   0  0  0  0  0  0  0  0  0  0  0  0
    4.7829    1.8828   -1.8700 H   0  0  0  0  0  0  0  0  0  0  0  0
   -4.2252    0.8604   -2.1267 H   0  0  0  0  0  0  0  0  0  0  0  0
   -3.1031   -2.2394   -4.9162 H   0  0  0  0  0  0  0  0  0  0  0  0
   -6.4257   -0.2238   -1.8277 H   0  0  0  0  0  0  0  0  0  0  0  0
   -5.3107   -3.2999   -4.6105 H   0  0  0  0  0  0  0  0  0  0  0  0
   -6.9783   -2.2973   -3.0717 H   0  0  0  0  0  0  0  0  0  0  0  0
  1  8  1  0  0  0  0
  1 18  1  0  0  0  0
  1 30  1  0  0  0  0
  2  9  2  0  0  0  0
  3 10  2  0  0  0  0
  4 11  1  0  0  0  0
  4 24  1  0  0  0  0
  4 31  1  0  0  0  0
  4 32  1  0  0  0  0
  5  6  1  0  0  0  0
  5 23  1  0  0  0  0
  6 33  1  0  0  0  0
  6 34  1  0  0  0  0
  6 35  1  0  0  0  0
  7  8  2  0  0  0  0
  7  9  1  0  0  0  0
  7 12  1  0  0  0  0
  8 10  1  0  0  0  0
  9 11  1  0  0  0  0
 10 11  1  0  0  0  0
 12 13  2  0  0  0  0
 12 14  1  0  0  0  0
 13 15  1  0  0  0  0
 13 36  1  0  0  0  0
 14 16  2  0  0  0  0
 14 37  1  0  0  0  0
 15 17  2  0  0  0  0
 15 38  1  0  0  0  0
 16 17  1  0  0  0  0
 16 39  1  0  0  0  0
 17 40  1  0  0  0  0
 18 19  2  0  0  0  0
 18 20  1  0  0  0  0
 19 21  1  0  0  0  0
 19 41  1  0  0  0  0
 20 22  2  0  0  0  0
 20 42  1  0  0  0  0
 21 23  2  0  0  0  0
 21 43  1  0  0  0  0
 22 23  1  0  0  0  0
 22 44  1  0  0  0  0
 24 25  2  0  0  0  0
 24 26  1  0  0  0  0
 25 27  1  0  0  0  0
 25 45  1  0  0  0  0
 26 28  2  0  0  0  0
 26 46  1  0  0  0  0
 27 29  2  0  0  0  0
 27 47  1  0  0  0  0
 28 29  1  0  0  0  0
 28 48  1  0  0  0  0
 29 49  1  0  0  0  0
M  END
>  <Mol_ID>
7474

>  <Formula>
C24H20N2O3

>  <MolWeight>
384.4272

>  <Cat>
E0099

>  <Name>
GSK3987

>  <Target>
Liver X Receptor

>  <Form>
free base

>  <CAS>
264206-85-1

>  <URL>
https://www.selleckchem.com/products/gsk3987.html

$$$$
