GSK3179106
 OpenBabel08302521223D

 54 56  0  0  0  0  0  0  0  0999 V2000
    0.9189    0.2123    0.2519 C   0  0  0  0  0  0  0  0  0  0  0  0
    0.3366   -0.9696   -0.4256 C   0  0  0  0  0  0  0  0  0  0  0  0
   -0.9980   -1.0857   -0.5564 C   0  0  0  0  0  0  0  0  0  0  0  0
   -1.8845   -0.0656    0.0096 C   0  0  0  0  0  0  0  0  0  0  0  0
   -1.3367    1.0150    0.5964 C   0  0  0  0  0  0  0  0  0  0  0  0
    0.0242    1.1483    0.6993 N   0  0  0  0  0  0  0  0  0  0  0  0
    2.1306    0.3343    0.3839 O   0  0  0  0  0  0  0  0  0  0  0  0
   -1.6575   -2.1083   -1.2099 O   0  0  0  0  0  0  0  0  0  0  0  0
   -0.9224   -2.7863   -2.2320 C   0  0  0  0  0  0  0  0  0  0  0  0
   -1.8208   -3.8281   -2.8732 C   0  0  0  0  0  0  0  0  0  0  0  0
   -3.3572   -0.1325   -0.0164 C   0  0  0  0  0  0  0  0  0  0  0  0
   -4.0767    0.4247   -1.0820 C   0  0  0  0  0  0  0  0  0  0  0  0
   -5.4750    0.3877   -1.0897 C   0  0  0  0  0  0  0  0  0  0  0  0
   -6.1714   -0.2038   -0.0286 C   0  0  0  0  0  0  0  0  0  0  0  0
   -5.4401   -0.7844    1.0098 C   0  0  0  0  0  0  0  0  0  0  0  0
   -4.0498   -0.7495    1.0303 C   0  0  0  0  0  0  0  0  0  0  0  0
   -6.0910   -1.4072    2.0039 F   0  0  0  0  0  0  0  0  0  0  0  0
   -7.6771   -0.2332   -0.0095 C   0  0  0  0  0  0  0  0  0  0  0  0
   -8.2714   -1.3948   -0.7825 C   0  0  0  0  0  0  0  0  0  0  0  0
   -7.9937   -2.6335   -0.2247 N   0  0  0  0  0  0  0  0  0  0  0  0
   -8.9498   -1.1766   -1.7815 O   0  0  0  0  0  0  0  0  0  0  0  0
   -8.3858   -3.8334   -0.7954 C   0  0  0  0  0  0  0  0  0  0  0  0
   -9.1010   -3.9543   -1.9140 N   0  0  0  0  0  0  0  0  0  0  0  0
   -9.2420   -5.2980   -2.1520 O   0  0  0  0  0  0  0  0  0  0  0  0
   -8.6359   -6.0050   -1.1600 C   0  0  0  0  0  0  0  0  0  0  0  0
   -8.0771   -5.1107   -0.2713 C   0  0  0  0  0  0  0  0  0  0  0  0
   -8.6793   -7.5082   -1.2882 C   0  0  0  0  0  0  0  0  0  0  0  0
   -8.6684   -8.1388    0.1210 C   0  0  0  0  0  0  0  0  0  0  0  0
   -9.9935   -7.9518   -1.9719 C   0  0  0  0  0  0  0  0  0  0  0  0
   -7.4675   -8.0165   -2.1085 C   0  0  0  0  0  0  0  0  0  0  0  0
   -6.6532   -7.0174   -2.5216 F   0  0  0  0  0  0  0  0  0  0  0  0
   -6.6922   -8.8607   -1.3819 F   0  0  0  0  0  0  0  0  0  0  0  0
   -7.8452   -8.6973   -3.2154 F   0  0  0  0  0  0  0  0  0  0  0  0
    1.0534   -1.6919   -0.7860 H   0  0  0  0  0  0  0  0  0  0  0  0
   -1.9251    1.8229    1.0223 H   0  0  0  0  0  0  0  0  0  0  0  0
    0.4265    1.9632    1.1472 H   0  0  0  0  0  0  0  0  0  0  0  0
   -0.6031   -2.0649   -2.9938 H   0  0  0  0  0  0  0  0  0  0  0  0
   -0.0479   -3.2931   -1.8112 H   0  0  0  0  0  0  0  0  0  0  0  0
   -2.7243   -3.3670   -3.2845 H   0  0  0  0  0  0  0  0  0  0  0  0
   -1.2927   -4.3495   -3.6773 H   0  0  0  0  0  0  0  0  0  0  0  0
   -2.1443   -4.5650   -2.1310 H   0  0  0  0  0  0  0  0  0  0  0  0
   -3.5510    0.8916   -1.9130 H   0  0  0  0  0  0  0  0  0  0  0  0
   -6.0145    0.8247   -1.9291 H   0  0  0  0  0  0  0  0  0  0  0  0
   -3.5181   -1.2037    1.8611 H   0  0  0  0  0  0  0  0  0  0  0  0
   -8.0594   -0.2511    1.0174 H   0  0  0  0  0  0  0  0  0  0  0  0
   -8.0578    0.6971   -0.4509 H   0  0  0  0  0  0  0  0  0  0  0  0
   -7.4314   -2.6814    0.6133 H   0  0  0  0  0  0  0  0  0  0  0  0
   -7.5062   -5.3449    0.6135 H   0  0  0  0  0  0  0  0  0  0  0  0
   -9.5362   -7.8165    0.7093 H   0  0  0  0  0  0  0  0  0  0  0  0
   -8.6933   -9.2333    0.0662 H   0  0  0  0  0  0  0  0  0  0  0  0
   -7.7701   -7.8564    0.6826 H   0  0  0  0  0  0  0  0  0  0  0  0
  -10.0840   -7.5398   -2.9836 H   0  0  0  0  0  0  0  0  0  0  0  0
  -10.0456   -9.0436   -2.0580 H   0  0  0  0  0  0  0  0  0  0  0  0
  -10.8721   -7.6209   -1.4050 H   0  0  0  0  0  0  0  0  0  0  0  0
  1  2  1  0  0  0  0
  1  7  2  0  0  0  0
  2  3  2  0  0  0  0
  2 34  1  0  0  0  0
  3  4  1  0  0  0  0
  3  8  1  0  0  0  0
  4  5  2  0  0  0  0
  4 11  1  0  0  0  0
  5  6  1  0  0  0  0
  5 35  1  0  0  0  0
  6  1  1  0  0  0  0
  6 36  1  0  0  0  0
  8  9  1  0  0  0  0
  9 10  1  0  0  0  0
  9 37  1  0  0  0  0
  9 38  1  0  0  0  0
 10 39  1  0  0  0  0
 10 40  1  0  0  0  0
 10 41  1  0  0  0  0
 11 12  2  0  0  0  0
 12 13  1  0  0  0  0
 12 42  1  0  0  0  0
 13 14  2  0  0  0  0
 13 43  1  0  0  0  0
 14 15  1  0  0  0  0
 14 18  1  0  0  0  0
 15 16  2  0  0  0  0
 15 17  1  0  0  0  0
 16 11  1  0  0  0  0
 16 44  1  0  0  0  0
 18 19  1  0  0  0  0
 18 45  1  0  0  0  0
 18 46  1  0  0  0  0
 19 20  1  0  0  0  0
 19 21  2  0  0  0  0
 20 22  1  0  0  0  0
 20 47  1  0  0  0  0
 22 23  2  0  0  0  0
 23 24  1  0  0  0  0
 24 25  1  0  0  0  0
 25 26  2  0  0  0  0
 25 27  1  0  0  0  0
 26 22  1  0  0  0  0
 26 48  1  0  0  0  0
 27 28  1  0  0  0  0
 27 29  1  0  0  0  0
 27 30  1  0  0  0  0
 28 49  1  0  0  0  0
 28 50  1  0  0  0  0
 28 51  1  0  0  0  0
 29 52  1  0  0  0  0
 29 53  1  0  0  0  0
 29 54  1  0  0  0  0
 30 31  1  0  0  0  0
 30 32  1  0  0  0  0
 30 33  1  0  0  0  0
M  END
>  <Mol_ID>
4672

>  <Formula>
C22H21F4N3O4

>  <MolWeight>
467.4134528

>  <Cat>
S8821

>  <Name>
GSK3179106

>  <Synonyms>
N/A

>  <Target>
c-RET

>  <Form>
Free Base

>  <CAS>
1627856-64-7

>  <URL>
http://www.selleck.cn/products/gsk3179106.html

$$$$
