GSK4112
 OpenBabel08302520323D

 47 48  0  0  0  0  0  0  0  0999 V2000
    0.2167    1.1362    0.0009 C   0  0  0  0  0  0  0  0  0  0  0  0
   -0.1172    2.6049   -0.0205 C   0  0  0  0  0  0  0  0  0  0  0  0
    1.0916    3.4383   -0.1280 N   0  0  0  0  0  0  0  0  0  0  0  0
    0.8110    4.8556    0.1715 C   0  0  0  0  0  0  0  0  0  0  0  0
    0.2930    5.0890    1.5762 C   0  0  0  0  0  0  0  0  0  0  0  0
    1.1867    4.7064    2.5273 O   0  0  0  0  0  0  0  0  0  0  0  0
    0.8355    4.8606    3.9279 C   0  0  0  0  0  0  0  0  0  0  0  0
    0.6181    6.3391    4.2811 C   0  0  0  0  0  0  0  0  0  0  0  0
   -0.3716    3.9899    4.2932 C   0  0  0  0  0  0  0  0  0  0  0  0
    2.0522    4.3562    4.7177 C   0  0  0  0  0  0  0  0  0  0  0  0
    1.8215    3.2800   -1.4053 C   0  0  0  0  0  0  0  0  0  0  0  0
   -0.8105    5.5803    1.7884 O   0  0  0  0  0  0  0  0  0  0  0  0
    1.0795    3.5391   -2.7062 C   0  0  0  0  0  0  0  0  0  0  0  0
    1.1921   -0.9197    0.5247 C   0  0  0  0  0  0  0  0  0  0  0  0
    0.3943   -1.2502   -0.5491 C   0  0  0  0  0  0  0  0  0  0  0  0
   -0.5099    0.0661   -1.1252 S   0  0  0  0  0  0  0  0  0  0  0  0
    1.0744    0.4629    0.8545 C   0  0  0  0  0  0  0  0  0  0  0  0
    0.2862   -2.5424   -1.1749 N   0  3  0  0  0  0  0  0  0  0  0  0
    0.9841   -3.4450   -0.6929 O   0  0  0  0  0  0  0  0  0  0  0  0
   -0.4713   -2.6650   -2.1454 O   0  5  0  0  0  0  0  0  0  0  0  0
    0.6129    4.8141   -3.0598 C   0  0  0  0  0  0  0  0  0  0  0  0
   -0.0547    5.0324   -4.2675 C   0  0  0  0  0  0  0  0  0  0  0  0
   -0.2202    3.9880   -5.1701 C   0  0  0  0  0  0  0  0  0  0  0  0
    0.2752    2.7249   -4.8613 C   0  0  0  0  0  0  0  0  0  0  0  0
    0.9134    2.5004   -3.6373 C   0  0  0  0  0  0  0  0  0  0  0  0
   -0.8449    2.8503   -0.8029 H   0  0  0  0  0  0  0  0  0  0  0  0
   -0.6235    2.7993    0.9347 H   0  0  0  0  0  0  0  0  0  0  0  0
    1.7124    5.4709    0.0568 H   0  0  0  0  0  0  0  0  0  0  0  0
    0.0412    5.2537   -0.4945 H   0  0  0  0  0  0  0  0  0  0  0  0
    1.4883    6.9392    3.9856 H   0  0  0  0  0  0  0  0  0  0  0  0
   -0.2430    6.7710    3.7630 H   0  0  0  0  0  0  0  0  0  0  0  0
    0.4517    6.4719    5.3531 H   0  0  0  0  0  0  0  0  0  0  0  0
   -0.1648    2.9332    4.0804 H   0  0  0  0  0  0  0  0  0  0  0  0
   -0.6263    4.0856    5.3540 H   0  0  0  0  0  0  0  0  0  0  0  0
   -1.2660    4.2461    3.7169 H   0  0  0  0  0  0  0  0  0  0  0  0
    2.9485    4.9391    4.4750 H   0  0  0  0  0  0  0  0  0  0  0  0
    1.8825    4.4192    5.7979 H   0  0  0  0  0  0  0  0  0  0  0  0
    2.2813    3.3147    4.4639 H   0  0  0  0  0  0  0  0  0  0  0  0
    2.7137    3.9199   -1.3951 H   0  0  0  0  0  0  0  0  0  0  0  0
    2.2381    2.2636   -1.4338 H   0  0  0  0  0  0  0  0  0  0  0  0
    1.8408   -1.6214    1.0382 H   0  0  0  0  0  0  0  0  0  0  0  0
    1.6186    0.9559    1.6532 H   0  0  0  0  0  0  0  0  0  0  0  0
    0.7725    5.6693   -2.4117 H   0  0  0  0  0  0  0  0  0  0  0  0
   -0.4309    6.0237   -4.5061 H   0  0  0  0  0  0  0  0  0  0  0  0
   -0.7181    4.1637   -6.1201 H   0  0  0  0  0  0  0  0  0  0  0  0
    0.1709    1.9128   -5.5765 H   0  0  0  0  0  0  0  0  0  0  0  0
    1.2975    1.5044   -3.4280 H   0  0  0  0  0  0  0  0  0  0  0  0
  1 16  1  0  0  0  0
  1 17  2  0  0  0  0
  2  1  1  0  0  0  0
  2 26  1  0  0  0  0
  2 27  1  0  0  0  0
  3  2  1  0  0  0  0
  3 11  1  0  0  0  0
  4  3  1  0  0  0  0
  4 28  1  0  0  0  0
  4 29  1  0  0  0  0
  5  4  1  0  0  0  0
  5 12  2  0  0  0  0
  6  5  1  0  0  0  0
  7  6  1  0  0  0  0
  7  9  1  0  0  0  0
  7 10  1  0  0  0  0
  8  7  1  0  0  0  0
  8 30  1  0  0  0  0
  8 31  1  0  0  0  0
  8 32  1  0  0  0  0
  9 33  1  0  0  0  0
  9 34  1  0  0  0  0
  9 35  1  0  0  0  0
 10 36  1  0  0  0  0
 10 37  1  0  0  0  0
 10 38  1  0  0  0  0
 11 13  1  0  0  0  0
 11 39  1  0  0  0  0
 11 40  1  0  0  0  0
 13 21  2  0  0  0  0
 14 15  2  0  0  0  0
 14 41  1  0  0  0  0
 15 16  1  0  0  0  0
 15 18  1  0  0  0  0
 17 14  1  0  0  0  0
 17 42  1  0  0  0  0
 18 19  2  0  0  0  0
 18 20  1  0  0  0  0
 21 22  1  0  0  0  0
 21 43  1  0  0  0  0
 22 23  2  0  0  0  0
 22 44  1  0  0  0  0
 23 24  1  0  0  0  0
 23 45  1  0  0  0  0
 24 25  2  0  0  0  0
 24 46  1  0  0  0  0
 25 13  1  0  0  0  0
 25 47  1  0  0  0  0
M  CHG  2  18   1  20  -1
M  END
>  <Mol_ID>
3344

>  <Formula>
C18H21ClN2O4S

>  <MolWeight>
396.88834

>  <Cat>
S5182

>  <Name>
GSK4112

>  <Synonyms>
N/A

>  <Target>
Others

>  <Form>
Free Base

>  <CAS>
1216744-19-2

>  <URL>
http://www.selleckchem.com/products/gsk4112.html

$$$$
