GSK4716
 OpenBabel08302521313D

 39 40  0  0  0  0  0  0  0  0999 V2000
   -8.5518   -2.7283   -4.9631 O   0  0  0  0  0  0  0  0  0  0  0  0
   -5.7727    0.3171   -0.2483 O   0  0  0  0  0  0  0  0  0  0  0  0
   -3.7555   -2.5749   -0.4167 N   0  0  0  0  0  0  0  0  0  0  0  0
   -4.3390   -1.3889   -0.0877 N   0  0  0  0  0  0  0  0  0  0  0  0
    0.6799   -7.5163   -0.1674 C   0  0  0  0  0  0  0  0  0  0  0  0
   -0.1740   -6.2613   -0.0934 C   0  0  0  0  0  0  0  0  0  0  0  0
    2.1212   -7.2190   -0.5875 C   0  0  0  0  0  0  0  0  0  0  0  0
    0.6491   -8.2649    1.1704 C   0  0  0  0  0  0  0  0  0  0  0  0
   -1.3002   -6.1224   -0.9230 C   0  0  0  0  0  0  0  0  0  0  0  0
    0.1049   -5.2494    0.8369 C   0  0  0  0  0  0  0  0  0  0  0  0
   -1.8723   -4.0375    0.1502 C   0  0  0  0  0  0  0  0  0  0  0  0
   -2.1484   -5.0153   -0.8038 C   0  0  0  0  0  0  0  0  0  0  0  0
   -0.7420   -4.1485    0.9647 C   0  0  0  0  0  0  0  0  0  0  0  0
   -2.7328   -2.8551    0.3333 C   0  0  0  0  0  0  0  0  0  0  0  0
   -6.1843   -1.3848   -1.8144 C   0  0  0  0  0  0  0  0  0  0  0  0
   -5.6760   -2.3345   -2.7064 C   0  0  0  0  0  0  0  0  0  0  0  0
   -7.4918   -0.9019   -2.0132 C   0  0  0  0  0  0  0  0  0  0  0  0
   -5.4185   -0.7812   -0.6882 C   0  0  0  0  0  0  0  0  0  0  0  0
   -6.4650   -2.8045   -3.7668 C   0  0  0  0  0  0  0  0  0  0  0  0
   -8.2738   -1.3680   -3.0677 C   0  0  0  0  0  0  0  0  0  0  0  0
   -7.7551   -2.3115   -3.9386 C   0  0  0  0  0  0  0  0  0  0  0  0
   -8.0508   -3.3525   -5.5132 H   0  0  0  0  0  0  0  0  0  0  0  0
   -3.9546   -0.8397    0.6749 H   0  0  0  0  0  0  0  0  0  0  0  0
    0.2525   -8.1869   -0.9244 H   0  0  0  0  0  0  0  0  0  0  0  0
    2.6353   -6.5717    0.1313 H   0  0  0  0  0  0  0  0  0  0  0  0
    2.6972   -8.1489   -0.6648 H   0  0  0  0  0  0  0  0  0  0  0  0
    2.1520   -6.7250   -1.5643 H   0  0  0  0  0  0  0  0  0  0  0  0
   -0.3816   -8.4616    1.4848 H   0  0  0  0  0  0  0  0  0  0  0  0
    1.1667   -9.2257    1.0885 H   0  0  0  0  0  0  0  0  0  0  0  0
    1.1364   -7.6934    1.9688 H   0  0  0  0  0  0  0  0  0  0  0  0
   -1.5361   -6.8878   -1.6601 H   0  0  0  0  0  0  0  0  0  0  0  0
    0.9746   -5.3207    1.4868 H   0  0  0  0  0  0  0  0  0  0  0  0
   -3.0226   -4.9320   -1.4444 H   0  0  0  0  0  0  0  0  0  0  0  0
   -0.5094   -3.3898    1.7075 H   0  0  0  0  0  0  0  0  0  0  0  0
   -2.4399   -2.1860    1.1644 H   0  0  0  0  0  0  0  0  0  0  0  0
   -4.6625   -2.7091   -2.6093 H   0  0  0  0  0  0  0  0  0  0  0  0
   -7.9023   -0.1485   -1.3449 H   0  0  0  0  0  0  0  0  0  0  0  0
   -6.0511   -3.5420   -4.4477 H   0  0  0  0  0  0  0  0  0  0  0  0
   -9.2814   -0.9828   -3.2124 H   0  0  0  0  0  0  0  0  0  0  0  0
  1 21  1  0  0  0  0
  1 22  1  0  0  0  0
  2 18  2  0  0  0  0
  3  4  1  0  0  0  0
  3 14  2  0  0  0  0
  4 18  1  0  0  0  0
  4 23  1  0  0  0  0
  5  6  1  0  0  0  0
  5  7  1  0  0  0  0
  5  8  1  0  0  0  0
  5 24  1  0  0  0  0
  6  9  2  0  0  0  0
  6 10  1  0  0  0  0
  7 25  1  0  0  0  0
  7 26  1  0  0  0  0
  7 27  1  0  0  0  0
  8 28  1  0  0  0  0
  8 29  1  0  0  0  0
  8 30  1  0  0  0  0
  9 12  1  0  0  0  0
  9 31  1  0  0  0  0
 10 13  2  0  0  0  0
 10 32  1  0  0  0  0
 11 12  2  0  0  0  0
 11 13  1  0  0  0  0
 11 14  1  0  0  0  0
 12 33  1  0  0  0  0
 13 34  1  0  0  0  0
 14 35  1  0  0  0  0
 15 16  2  0  0  0  0
 15 17  1  0  0  0  0
 15 18  1  0  0  0  0
 16 19  1  0  0  0  0
 16 36  1  0  0  0  0
 17 20  2  0  0  0  0
 17 37  1  0  0  0  0
 19 21  2  0  0  0  0
 19 38  1  0  0  0  0
 20 21  1  0  0  0  0
 20 39  1  0  0  0  0
M  END
>  <Mol_ID>
5848

>  <Formula>
C17H18N2O2

>  <MolWeight>
282.33702

>  <Cat>
S0358

>  <Name>
GSK4716

>  <Synonyms>
N/A

>  <Target>
Estrogen/progestogen Receptor

>  <Form>
Free Base

>  <CAS>
101574-65-6

>  <URL>
http://www.selleckchem.com/products/gsk-4716.html

$$$$
