GSK525762 (I-BET-762).cdx
 OpenBabel08302519573D

 52 55  0  0  0  0  0  0  0  0999 V2000
   -0.7649    0.3632    0.0402 N   0  0  0  0  0  0  0  0  0  0  0  0
   -1.5087   -0.7583   -0.2495 C   0  0  0  0  0  0  0  0  0  0  0  0
   -0.8779   -1.9690   -0.8566 C   0  0  1  0  0  0  0  0  0  0  0  0
   -0.0910   -2.6231    0.1973 N   0  0  0  0  0  0  0  0  0  0  0  0
    0.9190   -2.0159    0.7182 C   0  0  0  0  0  0  0  0  0  0  0  0
    1.4556   -0.6664    0.2808 C   0  0  0  0  0  0  0  0  0  0  0  0
    0.6478    0.4381   -0.0390 C   0  0  0  0  0  0  0  0  0  0  0  0
    2.8566   -0.5145    0.2223 C   0  0  0  0  0  0  0  0  0  0  0  0
    3.4462    0.6909   -0.1678 C   0  0  0  0  0  0  0  0  0  0  0  0
    2.6327    1.7517   -0.5385 C   0  0  0  0  0  0  0  0  0  0  0  0
    1.2424    1.6317   -0.4766 C   0  0  0  0  0  0  0  0  0  0  0  0
   -2.8936    0.7764    0.4088 N   0  0  0  0  0  0  0  0  0  0  0  0
   -2.7719   -0.5377    0.0449 N   0  0  0  0  0  0  0  0  0  0  0  0
   -1.6922    1.3279    0.3913 C   0  0  0  0  0  0  0  0  0  0  0  0
   -1.4164    2.7065    0.8570 C   0  0  0  0  0  0  0  0  0  0  0  0
    4.8134    0.6983   -0.1663 O   0  0  0  0  0  0  0  0  0  0  0  0
    5.4432    1.9079   -0.5773 C   0  0  0  0  0  0  0  0  0  0  0  0
    1.6176   -2.7129    1.8530 C   0  0  0  0  0  0  0  0  0  0  0  0
    1.6334   -4.1126    1.9251 C   0  0  0  0  0  0  0  0  0  0  0  0
    2.3453   -4.7483    2.9466 C   0  0  0  0  0  0  0  0  0  0  0  0
    3.0259   -3.9916    3.8983 C   0  0  0  0  0  0  0  0  0  0  0  0
    2.9894   -2.5980    3.8418 C   0  0  0  0  0  0  0  0  0  0  0  0
    2.2776   -1.9628    2.8318 C   0  0  0  0  0  0  0  0  0  0  0  0
   -1.9177   -2.9487   -1.4141 C   0  0  0  0  0  0  0  0  0  0  0  0
   -1.2544   -4.1558   -2.0342 C   0  0  0  0  0  0  0  0  0  0  0  0
   -1.0491   -5.2312   -1.2061 N   0  0  0  0  0  0  0  0  0  0  0  0
   -0.9049   -4.1709   -3.2253 O   0  0  0  0  0  0  0  0  0  0  0  0
   -0.3839   -6.4280   -1.6789 C   0  0  0  0  0  0  0  0  0  0  0  0
    1.1235   -6.3501   -1.5180 C   0  0  0  0  0  0  0  0  0  0  0  0
   -0.2302   -1.6725   -1.6943 H   0  0  0  0  0  0  0  0  0  0  0  0
    3.5162   -1.3391    0.4892 H   0  0  0  0  0  0  0  0  0  0  0  0
    3.0420    2.6906   -0.9016 H   0  0  0  0  0  0  0  0  0  0  0  0
    0.6553    2.4631   -0.8483 H   0  0  0  0  0  0  0  0  0  0  0  0
   -0.7366    2.6953    1.7138 H   0  0  0  0  0  0  0  0  0  0  0  0
   -1.0004    3.3350    0.0663 H   0  0  0  0  0  0  0  0  0  0  0  0
   -2.3469    3.1861    1.1764 H   0  0  0  0  0  0  0  0  0  0  0  0
    5.2035    2.1398   -1.6202 H   0  0  0  0  0  0  0  0  0  0  0  0
    5.1737    2.7386    0.0834 H   0  0  0  0  0  0  0  0  0  0  0  0
    6.5261    1.7659   -0.5076 H   0  0  0  0  0  0  0  0  0  0  0  0
    1.1296   -4.7089    1.1721 H   0  0  0  0  0  0  0  0  0  0  0  0
    2.3834   -5.8349    2.9860 H   0  0  0  0  0  0  0  0  0  0  0  0
    3.5947   -4.4864    4.6797 H   0  0  0  0  0  0  0  0  0  0  0  0
    3.5247   -2.0082    4.5831 H   0  0  0  0  0  0  0  0  0  0  0  0
    2.2747   -0.8776    2.7925 H   0  0  0  0  0  0  0  0  0  0  0  0
   -2.6085   -3.2690   -0.6186 H   0  0  0  0  0  0  0  0  0  0  0  0
   -2.5433   -2.4663   -2.1787 H   0  0  0  0  0  0  0  0  0  0  0  0
   -1.4177   -5.2017   -0.2622 H   0  0  0  0  0  0  0  0  0  0  0  0
   -0.7886   -7.2692   -1.1109 H   0  0  0  0  0  0  0  0  0  0  0  0
   -0.6239   -6.5880   -2.7348 H   0  0  0  0  0  0  0  0  0  0  0  0
    1.4000   -6.2947   -0.4620 H   0  0  0  0  0  0  0  0  0  0  0  0
    1.5961   -7.2401   -1.9462 H   0  0  0  0  0  0  0  0  0  0  0  0
    1.5332   -5.4682   -2.0209 H   0  0  0  0  0  0  0  0  0  0  0  0
  1  2  1  0  0  0  0
  1  7  1  0  0  0  0
  1 14  1  0  0  0  0
  2  3  1  0  0  0  0
  2 13  2  0  0  0  0
  3  4  1  0  0  0  0
  3 24  1  0  0  0  0
  3 30  1  6  0  0  0
  4  5  2  0  0  0  0
  5  6  1  0  0  0  0
  5 18  1  0  0  0  0
  6  7  2  0  0  0  0
  6  8  1  0  0  0  0
  7 11  1  0  0  0  0
  8  9  2  0  0  0  0
  8 31  1  0  0  0  0
  9 10  1  0  0  0  0
  9 16  1  0  0  0  0
 10 11  2  0  0  0  0
 10 32  1  0  0  0  0
 11 33  1  0  0  0  0
 12 13  1  0  0  0  0
 12 14  2  0  0  0  0
 14 15  1  0  0  0  0
 15 34  1  0  0  0  0
 15 35  1  0  0  0  0
 15 36  1  0  0  0  0
 16 17  1  0  0  0  0
 17 37  1  0  0  0  0
 17 38  1  0  0  0  0
 17 39  1  0  0  0  0
 18 19  2  0  0  0  0
 18 23  1  0  0  0  0
 19 20  1  0  0  0  0
 19 40  1  0  0  0  0
 20 21  2  0  0  0  0
 20 41  1  0  0  0  0
 21 22  1  0  0  0  0
 21 42  1  0  0  0  0
 22 23  2  0  0  0  0
 22 43  1  0  0  0  0
 23 44  1  0  0  0  0
 24 25  1  0  0  0  0
 24 45  1  0  0  0  0
 24 46  1  0  0  0  0
 25 26  1  0  0  0  0
 25 27  2  0  0  0  0
 26 28  1  0  0  0  0
 26 47  1  0  0  0  0
 28 29  1  0  0  0  0
 28 48  1  0  0  0  0
 28 49  1  0  0  0  0
 29 50  1  0  0  0  0
 29 51  1  0  0  0  0
 29 52  1  0  0  0  0
M  END
>  <Mol_ID>
2250

>  <Formula>
C22H22ClN5O2

>  <MolWeight>
423.89538

>  <Cat>
S7189

>  <Name>
Molibresib (I-BET-762)

>  <Synonyms>
GSK525762, GSK525762A

>  <Target>
Epigenetic Reader Domain

>  <Form>
free base

>  <CAS>
1260907-17-2

>  <URL>
http://selleckchem.com/products/i-bet-762.html

$$$$
