GSK583.cdx
 OpenBabel08302520413D

 47 50  0  0  0  0  0  0  0  0999 V2000
    2.4431   -0.7293   -0.0813 C   0  0  0  0  0  0  0  0  0  0  0  0
    2.4251    0.6579    0.0080 C   0  0  0  0  0  0  0  0  0  0  0  0
    1.2007    1.3235    0.0349 C   0  0  0  0  0  0  0  0  0  0  0  0
   -0.0066    0.6399    0.0230 C   0  0  0  0  0  0  0  0  0  0  0  0
   -0.0010   -0.7754   -0.0246 C   0  0  0  0  0  0  0  0  0  0  0  0
    1.2435   -1.4508   -0.0912 C   0  0  0  0  0  0  0  0  0  0  0  0
   -1.1261    1.3723    0.0648 N   0  0  0  0  0  0  0  0  0  0  0  0
   -2.3054    0.7254    0.1028 C   0  0  0  0  0  0  0  0  0  0  0  0
   -2.4196   -0.6477    0.0956 C   0  0  0  0  0  0  0  0  0  0  0  0
   -1.2613   -1.4241   -0.0203 C   0  0  0  0  0  0  0  0  0  0  0  0
    4.0080   -1.5854   -0.0392 S   0  0  0  0  0  0  0  0  0  0  0  0
    4.5238   -1.7846   -1.7733 C   0  0  0  0  0  0  0  0  0  0  0  0
    4.9452   -0.6966    0.6260 O   0  0  0  0  0  0  0  0  0  0  0  0
    3.7391   -2.8969    0.5194 O   0  0  0  0  0  0  0  0  0  0  0  0
    4.6643   -0.4206   -2.4617 C   0  0  0  0  0  0  0  0  0  0  0  0
    5.8939   -2.4858   -1.7780 C   0  0  0  0  0  0  0  0  0  0  0  0
    3.5155   -2.6509   -2.5391 C   0  0  0  0  0  0  0  0  0  0  0  0
   -1.3591   -2.8414   -0.1244 N   0  0  0  0  0  0  0  0  0  0  0  0
   -2.3591   -3.5568   -0.6969 C   0  0  0  0  0  0  0  0  0  0  0  0
   -3.1315   -3.1436   -1.8319 C   0  0  0  0  0  0  0  0  0  0  0  0
   -4.0918   -4.1376   -1.9975 C   0  0  0  0  0  0  0  0  0  0  0  0
   -3.7882   -5.0801   -1.0474 N   0  0  0  0  0  0  0  0  0  0  0  0
   -2.7463   -4.7525   -0.2585 N   0  0  0  0  0  0  0  0  0  0  0  0
   -3.1466   -2.0371   -2.7038 C   0  0  0  0  0  0  0  0  0  0  0  0
   -4.1598   -1.9465   -3.6494 C   0  0  0  0  0  0  0  0  0  0  0  0
   -5.1263   -2.9362   -3.7817 C   0  0  0  0  0  0  0  0  0  0  0  0
   -5.1023   -4.0709   -2.9611 C   0  0  0  0  0  0  0  0  0  0  0  0
   -4.2132   -0.8648   -4.4428 F   0  0  0  0  0  0  0  0  0  0  0  0
    3.3473    1.2331    0.0630 H   0  0  0  0  0  0  0  0  0  0  0  0
    1.1854    2.4095    0.0884 H   0  0  0  0  0  0  0  0  0  0  0  0
    1.2691   -2.5374   -0.1405 H   0  0  0  0  0  0  0  0  0  0  0  0
   -3.1862    1.3596    0.1368 H   0  0  0  0  0  0  0  0  0  0  0  0
   -3.4050   -1.0969    0.1463 H   0  0  0  0  0  0  0  0  0  0  0  0
    5.3109    0.2556   -1.8909 H   0  0  0  0  0  0  0  0  0  0  0  0
    5.0997   -0.5287   -3.4613 H   0  0  0  0  0  0  0  0  0  0  0  0
    3.6938    0.0732   -2.5847 H   0  0  0  0  0  0  0  0  0  0  0  0
    5.8380   -3.4721   -1.3044 H   0  0  0  0  0  0  0  0  0  0  0  0
    6.2648   -2.6260   -2.7989 H   0  0  0  0  0  0  0  0  0  0  0  0
    6.6416   -1.9017   -1.2292 H   0  0  0  0  0  0  0  0  0  0  0  0
    3.4035   -3.6384   -2.0787 H   0  0  0  0  0  0  0  0  0  0  0  0
    2.5247   -2.1879   -2.5719 H   0  0  0  0  0  0  0  0  0  0  0  0
    3.8361   -2.8029   -3.5769 H   0  0  0  0  0  0  0  0  0  0  0  0
   -0.9406   -3.2945    0.6879 H   0  0  0  0  0  0  0  0  0  0  0  0
   -4.2626   -5.9590   -0.8798 H   0  0  0  0  0  0  0  0  0  0  0  0
   -2.4086   -1.2463   -2.6341 H   0  0  0  0  0  0  0  0  0  0  0  0
   -5.8999   -2.8167   -4.5333 H   0  0  0  0  0  0  0  0  0  0  0  0
   -5.8500   -4.8496   -3.0675 H   0  0  0  0  0  0  0  0  0  0  0  0
  1  2  2  0  0  0  0
  1 11  1  0  0  0  0
  2  3  1  0  0  0  0
  2 29  1  0  0  0  0
  3  4  2  0  0  0  0
  3 30  1  0  0  0  0
  4  5  1  0  0  0  0
  4  7  1  0  0  0  0
  5  6  2  0  0  0  0
  6  1  1  0  0  0  0
  6 31  1  0  0  0  0
  7  8  2  0  0  0  0
  8  9  1  0  0  0  0
  8 32  1  0  0  0  0
  9 10  2  0  0  0  0
  9 33  1  0  0  0  0
 10  5  1  0  0  0  0
 10 18  1  0  0  0  0
 11 12  1  0  0  0  0
 11 13  2  0  0  0  0
 11 14  2  0  0  0  0
 12 15  1  0  0  0  0
 12 16  1  0  0  0  0
 12 17  1  0  0  0  0
 15 34  1  0  0  0  0
 15 35  1  0  0  0  0
 15 36  1  0  0  0  0
 16 37  1  0  0  0  0
 16 38  1  0  0  0  0
 16 39  1  0  0  0  0
 17 40  1  0  0  0  0
 17 41  1  0  0  0  0
 17 42  1  0  0  0  0
 18 19  1  0  0  0  0
 18 43  1  0  0  0  0
 19 20  1  0  0  0  0
 20 21  2  0  0  0  0
 20 24  1  0  0  0  0
 21 22  1  0  0  0  0
 22 23  1  0  0  0  0
 22 44  1  0  0  0  0
 23 19  2  0  0  0  0
 24 25  2  0  0  0  0
 24 45  1  0  0  0  0
 25 26  1  0  0  0  0
 25 28  1  0  0  0  0
 26 27  2  0  0  0  0
 26 46  1  0  0  0  0
 27 21  1  0  0  0  0
 27 47  1  0  0  0  0
M  END
>  <Mol_ID>
3976

>  <Formula>
C20H19FN4O2S

>  <MolWeight>
398.4538632

>  <Cat>
S8261

>  <Name>
GSK583

>  <Synonyms>
N/A

>  <Target>
Interleukins,RIP kinase,TNF-alpha

>  <Form>
free base

>  <CAS>
1346547-00-9

>  <URL>
http://selleckchem.com/products/gsk583.html

$$$$
