GSK591 (EPZ015866, GSK3203591).cdx
 OpenBabel08302520413D

 56 59  0  0  0  0  0  0  0  0999 V2000
   -0.5440   -1.6103    0.0017 C   0  0  0  0  0  0  0  0  0  0  0  0
   -1.2919   -1.5977    1.1218 N   0  0  0  0  0  0  0  0  0  0  0  0
   -0.6914   -1.2749    2.2817 C   0  0  0  0  0  0  0  0  0  0  0  0
    0.6515   -0.9810    2.3838 C   0  0  0  0  0  0  0  0  0  0  0  0
    1.4246   -0.9926    1.2215 C   0  0  0  0  0  0  0  0  0  0  0  0
    0.8104   -1.2828    0.0032 C   0  0  0  0  0  0  0  0  0  0  0  0
   -1.1338   -2.0206   -1.2144 N   0  0  0  0  0  0  0  0  0  0  0  0
   -2.3209   -2.8320   -1.2291 C   0  0  0  0  0  0  0  0  0  0  0  0
    2.8871   -0.7779    1.3999 C   0  0  0  0  0  0  0  0  0  0  0  0
    3.7144   -0.8630    0.2996 N   0  0  0  0  0  0  0  0  0  0  0  0
    3.3230   -0.5674    2.5284 O   0  0  0  0  0  0  0  0  0  0  0  0
    5.1517   -0.6848    0.4582 C   0  0  0  0  0  0  0  0  0  0  0  0
    5.8581   -1.7261    1.3553 C   0  0  1  0  0  0  0  0  0  0  0  0
    5.6561   -3.1826    0.8525 C   0  0  0  0  0  0  0  0  0  0  0  0
    7.2522   -1.3798    1.3862 O   0  0  0  0  0  0  0  0  0  0  0  0
    6.3538   -4.2220    1.6527 N   0  0  0  0  0  0  0  0  0  0  0  0
    6.1880   -5.5617    1.0537 C   0  0  0  0  0  0  0  0  0  0  0  0
    5.0981   -6.4458    1.6895 C   0  0  0  0  0  0  0  0  0  0  0  0
    5.4607   -6.6337    3.1340 C   0  0  0  0  0  0  0  0  0  0  0  0
    5.9602   -5.5018    3.8111 C   0  0  0  0  0  0  0  0  0  0  0  0
    5.9485   -4.1769    3.0837 C   0  0  0  0  0  0  0  0  0  0  0  0
    5.3692   -7.8657    3.7870 C   0  0  0  0  0  0  0  0  0  0  0  0
    5.7913   -7.9826    5.1095 C   0  0  0  0  0  0  0  0  0  0  0  0
    6.2895   -6.8660    5.7861 C   0  0  0  0  0  0  0  0  0  0  0  0
    6.3609   -5.6255    5.1424 C   0  0  0  0  0  0  0  0  0  0  0  0
   -2.0525   -4.2657   -0.7047 C   0  0  0  0  0  0  0  0  0  0  0  0
   -2.8629   -4.7969   -1.8992 C   0  0  0  0  0  0  0  0  0  0  0  0
   -2.5725   -3.4647   -2.6179 C   0  0  0  0  0  0  0  0  0  0  0  0
   -1.3291   -1.2758    3.1599 H   0  0  0  0  0  0  0  0  0  0  0  0
    1.0904   -0.7754    3.3554 H   0  0  0  0  0  0  0  0  0  0  0  0
    1.3611   -1.3428   -0.9261 H   0  0  0  0  0  0  0  0  0  0  0  0
   -1.2184   -1.2056   -1.8164 H   0  0  0  0  0  0  0  0  0  0  0  0
   -3.2005   -2.3387   -0.8004 H   0  0  0  0  0  0  0  0  0  0  0  0
    3.3357   -0.7648   -0.6283 H   0  0  0  0  0  0  0  0  0  0  0  0
    5.6008   -0.6850   -0.5422 H   0  0  0  0  0  0  0  0  0  0  0  0
    5.3226    0.3179    0.8710 H   0  0  0  0  0  0  0  0  0  0  0  0
    5.4856   -1.6370    2.3793 H   0  0  0  0  0  0  0  0  0  0  0  0
    4.5867   -3.4181    0.7902 H   0  0  0  0  0  0  0  0  0  0  0  0
    6.0640   -3.2327   -0.1665 H   0  0  0  0  0  0  0  0  0  0  0  0
    7.7463   -2.1289    1.0082 H   0  0  0  0  0  0  0  0  0  0  0  0
    6.0287   -5.5057   -0.0300 H   0  0  0  0  0  0  0  0  0  0  0  0
    7.1514   -6.0800    1.1726 H   0  0  0  0  0  0  0  0  0  0  0  0
    4.1107   -5.9784    1.6100 H   0  0  0  0  0  0  0  0  0  0  0  0
    5.0581   -7.4116    1.1757 H   0  0  0  0  0  0  0  0  0  0  0  0
    6.6190   -3.4684    3.5985 H   0  0  0  0  0  0  0  0  0  0  0  0
    4.9251   -3.7828    3.1824 H   0  0  0  0  0  0  0  0  0  0  0  0
    4.9883   -8.7405    3.2657 H   0  0  0  0  0  0  0  0  0  0  0  0
    5.7417   -8.9445    5.6137 H   0  0  0  0  0  0  0  0  0  0  0  0
    6.6175   -6.9617    6.8163 H   0  0  0  0  0  0  0  0  0  0  0  0
    6.7355   -4.7626    5.6904 H   0  0  0  0  0  0  0  0  0  0  0  0
   -1.0015   -4.5793   -0.7218 H   0  0  0  0  0  0  0  0  0  0  0  0
   -2.4706   -4.4934    0.2799 H   0  0  0  0  0  0  0  0  0  0  0  0
   -2.4569   -5.6906   -2.3803 H   0  0  0  0  0  0  0  0  0  0  0  0
   -3.9226   -4.9606   -1.6751 H   0  0  0  0  0  0  0  0  0  0  0  0
   -3.4164   -3.0529   -3.1785 H   0  0  0  0  0  0  0  0  0  0  0  0
   -1.6977   -3.5082   -3.2773 H   0  0  0  0  0  0  0  0  0  0  0  0
  1  2  2  0  0  0  0
  1  7  1  0  0  0  0
  2  3  1  0  0  0  0
  3  4  2  0  0  0  0
  3 29  1  0  0  0  0
  4  5  1  0  0  0  0
  4 30  1  0  0  0  0
  5  6  2  0  0  0  0
  5  9  1  0  0  0  0
  6  1  1  0  0  0  0
  6 31  1  0  0  0  0
  7  8  1  0  0  0  0
  7 32  1  0  0  0  0
  8 26  1  0  0  0  0
  8 33  1  0  0  0  0
  9 10  1  0  0  0  0
  9 11  2  0  0  0  0
 10 12  1  0  0  0  0
 10 34  1  0  0  0  0
 12 13  1  0  0  0  0
 12 35  1  0  0  0  0
 12 36  1  0  0  0  0
 13 14  1  0  0  0  0
 13 15  1  0  0  0  0
 13 37  1  1  0  0  0
 14 16  1  0  0  0  0
 14 38  1  0  0  0  0
 14 39  1  0  0  0  0
 15 40  1  0  0  0  0
 16 17  1  0  0  0  0
 17 18  1  0  0  0  0
 17 41  1  0  0  0  0
 17 42  1  0  0  0  0
 18 19  1  0  0  0  0
 18 43  1  0  0  0  0
 18 44  1  0  0  0  0
 19 20  2  0  0  0  0
 19 22  1  0  0  0  0
 20 21  1  0  0  0  0
 21 16  1  0  0  0  0
 21 45  1  0  0  0  0
 21 46  1  0  0  0  0
 22 23  2  0  0  0  0
 22 47  1  0  0  0  0
 23 24  1  0  0  0  0
 23 48  1  0  0  0  0
 24 25  2  0  0  0  0
 24 49  1  0  0  0  0
 25 20  1  0  0  0  0
 25 50  1  0  0  0  0
 26 27  1  0  0  0  0
 26 51  1  0  0  0  0
 26 52  1  0  0  0  0
 27 28  1  0  0  0  0
 27 53  1  0  0  0  0
 27 54  1  0  0  0  0
 28  8  1  0  0  0  0
 28 55  1  0  0  0  0
 28 56  1  0  0  0  0
M  END
>  <Mol_ID>
3926

>  <Formula>
C22H28N4O2

>  <MolWeight>
380.48332

>  <Cat>
S8111

>  <Name>
GSK591

>  <Synonyms>
EPZ015866, GSK3203591

>  <Target>
Histone Methyltransferase,PRMT

>  <Form>
free base

>  <CAS>
1616391-87-7

>  <URL>
http://selleckchem.com/products/gsk591-epz015866-gsk3203591.html

$$$$
