GSK 5959
 OpenBabel08302520143D

 55 58  0  0  0  0  0  0  0  0999 V2000
    1.8291   -0.7906   -0.5186 C   0  0  0  0  0  0  0  0  0  0  0  0
    0.9620   -1.6652    0.3365 C   0  0  0  0  0  0  0  0  0  0  0  0
    0.5486   -2.9299   -0.1142 C   0  0  0  0  0  0  0  0  0  0  0  0
   -0.5163   -3.5986    0.5461 C   0  0  0  0  0  0  0  0  0  0  0  0
   -1.1104   -3.0491    1.6635 C   0  0  0  0  0  0  0  0  0  0  0  0
   -0.6364   -1.8465    2.1775 C   0  0  0  0  0  0  0  0  0  0  0  0
    0.3928   -1.1661    1.5136 C   0  0  0  0  0  0  0  0  0  0  0  0
    1.6938   -0.8787   -1.7388 O   0  0  0  0  0  0  0  0  0  0  0  0
    2.6462    0.1630    0.0905 N   0  0  0  0  0  0  0  0  0  0  0  0
    1.0629   -3.6218   -1.1863 O   0  0  0  0  0  0  0  0  0  0  0  0
    2.4903   -3.6245   -1.2959 C   0  0  0  0  0  0  0  0  0  0  0  0
    4.8750    2.6348   -4.6664 C   0  0  0  0  0  0  0  0  0  0  0  0
    4.8568    1.3778   -4.0442 N   0  0  0  0  0  0  0  0  0  0  0  0
    4.5613    1.5447   -2.6935 C   0  0  0  0  0  0  0  0  0  0  0  0
    4.5371    2.9095   -2.4429 C   0  0  0  0  0  0  0  0  0  0  0  0
    4.9846    3.6043   -3.6124 N   0  0  0  0  0  0  0  0  0  0  0  0
    4.0962    0.6162   -1.7987 C   0  0  0  0  0  0  0  0  0  0  0  0
    3.3326    1.1081   -0.7267 C   0  0  0  0  0  0  0  0  0  0  0  0
    3.1495    2.5214   -0.5052 C   0  0  0  0  0  0  0  0  0  0  0  0
    3.8440    3.4207   -1.3563 C   0  0  0  0  0  0  0  0  0  0  0  0
    2.2314    2.9822    0.4590 N   0  0  0  0  0  0  0  0  0  0  0  0
    2.3162    4.3727    0.9266 C   0  0  0  0  0  0  0  0  0  0  0  0
    1.8374    4.3750    2.3767 C   0  0  0  0  0  0  0  0  0  0  0  0
    0.4163    3.8218    2.5077 C   0  0  0  0  0  0  0  0  0  0  0  0
    0.2364    2.5102    1.7413 C   0  0  0  0  0  0  0  0  0  0  0  0
    0.8126    2.5710    0.3235 C   0  0  0  0  0  0  0  0  0  0  0  0
    5.0135    2.8587   -5.8602 O   0  0  0  0  0  0  0  0  0  0  0  0
    5.5440    0.2780   -4.6339 C   0  0  0  0  0  0  0  0  0  0  0  0
    6.3913    4.0281   -3.6221 C   0  0  0  0  0  0  0  0  0  0  0  0
   -0.8525   -4.5405    0.1177 H   0  0  0  0  0  0  0  0  0  0  0  0
   -1.9309   -3.5854    2.1510 H   0  0  0  0  0  0  0  0  0  0  0  0
   -1.0854   -1.4282    3.0651 H   0  0  0  0  0  0  0  0  0  0  0  0
    0.6992   -0.2212    1.9243 H   0  0  0  0  0  0  0  0  0  0  0  0
    2.3845    0.5161    1.0004 H   0  0  0  0  0  0  0  0  0  0  0  0
    2.8166   -2.9037   -2.0522 H   0  0  0  0  0  0  0  0  0  0  0  0
    2.9943   -3.4362   -0.3428 H   0  0  0  0  0  0  0  0  0  0  0  0
    2.8071   -4.6103   -1.6523 H   0  0  0  0  0  0  0  0  0  0  0  0
    4.1677   -0.4454   -2.0000 H   0  0  0  0  0  0  0  0  0  0  0  0
    3.7120    4.4937   -1.2845 H   0  0  0  0  0  0  0  0  0  0  0  0
    1.6845    5.0304    0.3113 H   0  0  0  0  0  0  0  0  0  0  0  0
    3.3372    4.7640    0.8995 H   0  0  0  0  0  0  0  0  0  0  0  0
    1.8816    5.3851    2.7890 H   0  0  0  0  0  0  0  0  0  0  0  0
    2.5197    3.7471    2.9646 H   0  0  0  0  0  0  0  0  0  0  0  0
    0.1917    3.6528    3.5662 H   0  0  0  0  0  0  0  0  0  0  0  0
   -0.3028    4.5594    2.1357 H   0  0  0  0  0  0  0  0  0  0  0  0
    0.7697    1.7429    2.3089 H   0  0  0  0  0  0  0  0  0  0  0  0
   -0.8203    2.2238    1.7143 H   0  0  0  0  0  0  0  0  0  0  0  0
    0.6707    1.6093   -0.1728 H   0  0  0  0  0  0  0  0  0  0  0  0
    0.2555    3.2988   -0.2837 H   0  0  0  0  0  0  0  0  0  0  0  0
    4.8454   -0.3456   -5.1883 H   0  0  0  0  0  0  0  0  0  0  0  0
    6.0860   -0.2895   -3.8738 H   0  0  0  0  0  0  0  0  0  0  0  0
    6.2861    0.6885   -5.3310 H   0  0  0  0  0  0  0  0  0  0  0  0
    6.9552    3.5590   -2.8077 H   0  0  0  0  0  0  0  0  0  0  0  0
    6.8852    3.6875   -4.5470 H   0  0  0  0  0  0  0  0  0  0  0  0
    6.4644    5.1114   -3.5903 H   0  0  0  0  0  0  0  0  0  0  0  0
  1  2  1  0  0  0  0
  1  8  2  0  0  0  0
  1  9  1  0  0  0  0
  2  3  2  0  0  0  0
  2  7  1  0  0  0  0
  3  4  1  0  0  0  0
  3 10  1  0  0  0  0
  4  5  2  0  0  0  0
  4 30  1  0  0  0  0
  5  6  1  0  0  0  0
  5 31  1  0  0  0  0
  6  7  2  0  0  0  0
  6 32  1  0  0  0  0
  7 33  1  0  0  0  0
  9 18  1  0  0  0  0
  9 34  1  0  0  0  0
 10 11  1  0  0  0  0
 11 35  1  0  0  0  0
 11 36  1  0  0  0  0
 11 37  1  0  0  0  0
 12 13  1  0  0  0  0
 12 16  1  0  0  0  0
 12 27  2  0  0  0  0
 13 14  1  0  0  0  0
 13 28  1  0  0  0  0
 14 15  2  0  0  0  0
 14 17  1  0  0  0  0
 15 16  1  0  0  0  0
 15 20  1  0  0  0  0
 16 29  1  0  0  0  0
 17 18  2  0  0  0  0
 17 38  1  0  0  0  0
 18 19  1  0  0  0  0
 19 20  2  0  0  0  0
 19 21  1  0  0  0  0
 20 39  1  0  0  0  0
 21 22  1  0  0  0  0
 21 26  1  0  0  0  0
 22 23  1  0  0  0  0
 22 40  1  0  0  0  0
 22 41  1  0  0  0  0
 23 24  1  0  0  0  0
 23 42  1  0  0  0  0
 23 43  1  0  0  0  0
 24 25  1  0  0  0  0
 24 44  1  0  0  0  0
 24 45  1  0  0  0  0
 25 26  1  0  0  0  0
 25 46  1  0  0  0  0
 25 47  1  0  0  0  0
 26 48  1  0  0  0  0
 26 49  1  0  0  0  0
 28 50  1  0  0  0  0
 28 51  1  0  0  0  0
 28 52  1  0  0  0  0
 29 53  1  0  0  0  0
 29 54  1  0  0  0  0
 29 55  1  0  0  0  0
M  END
>  <Mol_ID>
3179

>  <Formula>
C22H26N4O3

>  <MolWeight>
394.46684

>  <Cat>
S5916

>  <Name>
GSK 5959

>  <Synonyms>
N/A

>  <Target>
Epigenetic Reader Domain

>  <Form>
Free Base

>  <CAS>
901245-65-6

>  <URL>
http://www.selleckchem.com/products/gsk-5959.html

$$$$
