Guan-fu base A
 OpenBabel08302521503D

 62 68  0  0  1  0  0  0  0  0999 V2000
    1.3591   -0.4242    0.1575 O   0  0  0  0  0  0  0  0  0  0  0  0
    3.0341    2.3869    2.1054 O   0  0  0  0  0  0  0  0  0  0  0  0
    7.2152   -3.2675   -0.2408 C   0  0  0  0  0  0  0  0  0  0  0  0
    3.0742   -4.2421   -1.0327 O   0  0  0  0  0  0  0  0  0  0  0  0
    2.0028   -4.5525   -1.7920 C   0  0  0  0  0  0  0  0  0  0  0  0
    2.1230   -3.9426   -3.2026 C   0  0  0  0  0  0  0  0  0  0  0  0
    1.0304   -5.1510   -1.4124 O   0  0  0  0  0  0  0  0  0  0  0  0
    1.2250    0.8077   -2.5767 O   0  0  0  0  0  0  0  0  0  0  0  0
   -0.1014    0.6820   -2.4957 C   0  0  0  0  0  0  0  0  0  0  0  0
   -0.7094    0.4556   -3.8479 C   0  0  0  0  0  0  0  0  0  0  0  0
   -0.6663    0.7436   -1.4186 O   0  0  0  0  0  0  0  0  0  0  0  0
    3.2291    3.9403   -1.4164 C   0  0  0  0  0  0  0  0  0  0  0  0
    3.3929   -1.7715    0.8567 C   0  0  2  0  0  0  0  0  0  0  0  0
    2.9522   -1.6033   -0.8811 C   0  0  3  0  0  0  0  0  0  0  0  0
    3.4492    0.0055    1.3700 C   0  0  3  0  0  0  0  0  0  0  0  0
    5.1356   -2.1755    0.6890 C   0  0  3  0  0  0  0  0  0  0  0  0
    2.9391   -3.2047    1.3636 C   0  0  0  0  0  0  0  0  0  0  0  0
    2.5707   -0.1897   -0.7191 C   0  0  3  0  0  0  0  0  0  0  0  0
    4.3512   -1.7224   -1.7214 N   0  0  3  0  0  0  0  0  0  0  0  0
    3.9699    0.4823    0.0208 C   0  0  3  0  0  0  0  0  0  0  0  0
    2.3672    1.3412    1.3279 C   0  0  3  0  0  0  0  0  0  0  0  0
    5.2791   -1.4150   -0.5762 C   0  0  3  0  0  0  0  0  0  0  0  0
    5.6719   -3.4291   -0.2051 C   0  0  3  0  0  0  0  0  0  0  0  0
    3.4013   -4.4603    0.3782 C   0  0  3  0  0  0  0  0  0  0  0  0
    2.1426    0.9485   -1.5311 C   0  0  3  0  0  0  0  0  0  0  0  0
    5.1492   -3.0489   -1.8178 C   0  0  0  0  0  0  0  0  0  0  0  0
    5.3418   -0.0420   -0.2603 C   0  0  0  0  0  0  0  0  0  0  0  0
    4.3674    1.9837   -0.3718 C   0  0  0  0  0  0  0  0  0  0  0  0
    2.0036    2.0130   -0.3032 C   0  0  3  0  0  0  0  0  0  0  0  0
    4.9718   -4.6728    0.3180 C   0  0  0  0  0  0  0  0  0  0  0  0
    3.1974    2.8400   -0.6522 C   0  0  0  0  0  0  0  0  0  0  0  0
    0.5323   -0.4539   -0.3656 H   0  0  0  0  0  0  0  0  0  0  0  0
    2.8764    3.2464    1.6722 H   0  0  0  0  0  0  0  0  0  0  0  0
    7.6683   -3.8575   -1.0383 H   0  0  0  0  0  0  0  0  0  0  0  0
    7.4820   -2.2207   -0.4873 H   0  0  0  0  0  0  0  0  0  0  0  0
    7.6970   -3.4539    0.7191 H   0  0  0  0  0  0  0  0  0  0  0  0
    2.0345   -4.7132   -3.9727 H   0  0  0  0  0  0  0  0  0  0  0  0
    1.3638   -3.1662   -3.3549 H   0  0  0  0  0  0  0  0  0  0  0  0
    3.0774   -3.4497   -3.3840 H   0  0  0  0  0  0  0  0  0  0  0  0
   -0.9356   -0.5988   -3.9383 H   0  0  0  0  0  0  0  0  0  0  0  0
   -1.6039    1.0702   -3.9596 H   0  0  0  0  0  0  0  0  0  0  0  0
   -0.0018    0.7290   -4.6453 H   0  0  0  0  0  0  0  0  0  0  0  0
    4.1681    4.3120   -1.8262 H   0  0  0  0  0  0  0  0  0  0  0  0
    2.3179    4.4239   -1.7483 H   0  0  0  0  0  0  0  0  0  0  0  0
    2.0967   -2.2341   -1.1269 H   0  0  0  0  0  0  0  0  0  0  0  0
    4.1604    0.1135    2.1993 H   0  0  0  0  0  0  0  0  0  0  0  0
    5.7084   -1.9125    1.5845 H   0  0  0  0  0  0  0  0  0  0  0  0
    3.3868   -3.4197    2.3473 H   0  0  0  0  0  0  0  0  0  0  0  0
    1.8526   -3.2662    1.4854 H   0  0  0  0  0  0  0  0  0  0  0  0
    1.4387    1.1524    1.8719 H   0  0  0  0  0  0  0  0  0  0  0  0
    4.5090   -2.0568   -0.3955 H   0  0  0  0  0  0  0  0  0  0  0  0
    2.9445   -5.4024    0.7033 H   0  0  0  0  0  0  0  0  0  0  0  0
    3.0282    1.1415   -2.1504 H   0  0  0  0  0  0  0  0  0  0  0  0
    6.0241   -2.7334   -2.4068 H   0  0  0  0  0  0  0  0  0  0  0  0
    4.7403   -3.8864   -2.3729 H   0  0  0  0  0  0  0  0  0  0  0  0
    6.0207    0.1347    0.5811 H   0  0  0  0  0  0  0  0  0  0  0  0
    5.8496    0.3602   -1.1395 H   0  0  0  0  0  0  0  0  0  0  0  0
    5.0664    2.4133    0.3514 H   0  0  0  0  0  0  0  0  0  0  0  0
    4.9029    1.9570   -1.3399 H   0  0  0  0  0  0  0  0  0  0  0  0
    1.0853    2.6016   -0.2920 H   0  0  0  0  0  0  0  0  0  0  0  0
    5.2181   -5.4838   -0.3832 H   0  0  0  0  0  0  0  0  0  0  0  0
    5.3675   -4.9546    1.2984 H   0  0  0  0  0  0  0  0  0  0  0  0
  1 32  1  0  0  0  0
  2 33  1  0  0  0  0
  3 34  1  0  0  0  0
  3 35  1  0  0  0  0
  3 36  1  0  0  0  0
  4  5  1  0  0  0  0
  5  6  1  0  0  0  0
  5  7  2  0  0  0  0
  6 37  1  0  0  0  0
  6 38  1  0  0  0  0
  6 39  1  0  0  0  0
  8  9  1  0  0  0  0
  9 10  1  0  0  0  0
  9 11  2  0  0  0  0
 10 40  1  0  0  0  0
 10 41  1  0  0  0  0
 10 42  1  0  0  0  0
 12 31  2  0  0  0  0
 12 43  1  0  0  0  0
 12 44  1  0  0  0  0
 13 14  1  0  0  0  0
 13 15  1  0  0  0  0
 13 16  1  0  0  0  0
 13 17  1  1  0  0  0
 14 18  1  0  0  0  0
 14 19  1  0  0  0  0
 14 45  1  0  0  0  0
 15 20  1  0  0  0  0
 15 21  1  0  0  0  0
 15 46  1  0  0  0  0
 16 22  1  0  0  0  0
 16 23  1  0  0  0  0
 16 47  1  0  0  0  0
 17 24  1  0  0  0  0
 17 48  1  0  0  0  0
 17 49  1  0  0  0  0
 18  1  1  0  0  0  0
 18 20  1  0  0  0  0
 18 25  1  0  0  0  0
 19 26  1  0  0  0  0
 20 27  1  0  0  0  0
 20 28  1  0  0  0  0
 21  2  1  0  0  0  0
 21 29  1  0  0  0  0
 21 50  1  0  0  0  0
 22 19  1  0  0  0  0
 22 27  1  0  0  0  0
 22 51  1  0  0  0  0
 23  3  1  0  0  0  0
 23 26  1  0  0  0  0
 23 30  1  0  0  0  0
 24  4  1  0  0  0  0
 24 30  1  0  0  0  0
 24 52  1  0  0  0  0
 25  8  1  0  0  0  0
 25 29  1  0  0  0  0
 25 53  1  0  0  0  0
 26 54  1  0  0  0  0
 26 55  1  0  0  0  0
 27 56  1  0  0  0  0
 27 57  1  0  0  0  0
 28 31  1  0  0  0  0
 28 58  1  0  0  0  0
 28 59  1  0  0  0  0
 29 31  1  0  0  0  0
 29 60  1  0  0  0  0
 30 61  1  0  0  0  0
 30 62  1  0  0  0  0
M  END
>  <Mol_ID>
9907

>  <Formula>
C24H31NO6

>  <MolWeight>
429.50604

>  <Cat>
E5054

>  <Name>
Guan-fu base A

>  <Synonyms>
N/A

>  <Target>
Potassium Channel

>  <Form>
free base

>  <CAS>
1394-48-5

>  <URL>
https://www.selleckchem.com/products/guan-fu-base-a.html

$$$$
