GV-58
 OpenBabel08302521313D

 52 54  0  0  0  0  0  0  0  0999 V2000
    7.0294   -3.6589   -2.6879 S   0  0  0  0  0  0  0  0  0  0  0  0
    4.8108    4.2166    1.5498 O   0  0  0  0  0  0  0  0  0  0  0  0
    1.7674   -1.3595    3.0489 N   0  0  0  0  0  0  0  0  0  0  0  0
    5.4740    1.5168    2.5616 N   0  0  0  0  0  0  0  0  0  0  0  0
    3.6063    0.2345    2.9206 N   0  0  0  0  0  0  0  0  0  0  0  0
    4.8837   -0.0436    0.9059 N   0  0  0  0  0  0  0  0  0  0  0  0
    4.3741   -1.6981   -0.7642 N   0  0  0  0  0  0  0  0  0  0  0  0
    2.1518   -2.5364    1.1958 N   0  0  0  0  0  0  0  0  0  0  0  0
    6.3365    2.2791    1.6633 C   0  0  2  0  0  0  0  0  0  0  0  0
    2.8698   -0.7886    2.4697 C   0  0  0  0  0  0  0  0  0  0  0  0
    7.3611    3.0629    2.5093 C   0  0  0  0  0  0  0  0  0  0  0  0
    1.1201   -0.9510    4.2757 C   0  0  0  0  0  0  0  0  0  0  0  0
    3.0660   -1.5010    1.3039 C   0  0  0  0  0  0  0  0  0  0  0  0
    4.6280    0.5398    2.0949 C   0  0  0  0  0  0  0  0  0  0  0  0
    4.1162   -1.0861    0.4695 C   0  0  0  0  0  0  0  0  0  0  0  0
    5.5174    3.2445    0.7781 C   0  0  0  0  0  0  0  0  0  0  0  0
    0.0057    0.0818    4.0933 C   0  0  0  0  0  0  0  0  0  0  0  0
    1.4128   -2.4325    2.2797 C   0  0  0  0  0  0  0  0  0  0  0  0
    8.2094    2.1665    3.4036 C   0  0  0  0  0  0  0  0  0  0  0  0
    5.7587   -1.6547   -1.1998 C   0  0  0  0  0  0  0  0  0  0  0  0
   -1.1476   -0.3936    3.2208 C   0  0  0  0  0  0  0  0  0  0  0  0
    5.9880   -2.3052   -2.5385 C   0  0  0  0  0  0  0  0  0  0  0  0
    5.4709   -1.9376   -3.7658 C   0  0  0  0  0  0  0  0  0  0  0  0
    6.8110   -3.7370   -4.3843 C   0  0  0  0  0  0  0  0  0  0  0  0
    5.9482   -2.7590   -4.8296 C   0  0  0  0  0  0  0  0  0  0  0  0
    7.5206   -4.7781   -5.1796 C   0  0  0  0  0  0  0  0  0  0  0  0
    4.0341    3.7583    1.9160 H   0  0  0  0  0  0  0  0  0  0  0  0
    5.1355    1.9553    3.4080 H   0  0  0  0  0  0  0  0  0  0  0  0
    3.9468   -2.6189   -0.7912 H   0  0  0  0  0  0  0  0  0  0  0  0
    6.8920    1.5943    1.0081 H   0  0  0  0  0  0  0  0  0  0  0  0
    8.0271    3.6167    1.8380 H   0  0  0  0  0  0  0  0  0  0  0  0
    6.8562    3.8035    3.1407 H   0  0  0  0  0  0  0  0  0  0  0  0
    0.7260   -1.8560    4.7578 H   0  0  0  0  0  0  0  0  0  0  0  0
    1.8929   -0.5467    4.9409 H   0  0  0  0  0  0  0  0  0  0  0  0
    6.1879    3.7874    0.1037 H   0  0  0  0  0  0  0  0  0  0  0  0
    4.7888    2.7113    0.1571 H   0  0  0  0  0  0  0  0  0  0  0  0
   -0.3946    0.3346    5.0848 H   0  0  0  0  0  0  0  0  0  0  0  0
    0.4155    1.0085    3.6698 H   0  0  0  0  0  0  0  0  0  0  0  0
    0.5971   -3.0983    2.5481 H   0  0  0  0  0  0  0  0  0  0  0  0
    8.7009    1.3800    2.8232 H   0  0  0  0  0  0  0  0  0  0  0  0
    8.9849    2.7580    3.9029 H   0  0  0  0  0  0  0  0  0  0  0  0
    7.6034    1.6946    4.1834 H   0  0  0  0  0  0  0  0  0  0  0  0
    6.3996   -2.1218   -0.4391 H   0  0  0  0  0  0  0  0  0  0  0  0
    6.0864   -0.6098   -1.2983 H   0  0  0  0  0  0  0  0  0  0  0  0
   -1.5310   -1.3598    3.5588 H   0  0  0  0  0  0  0  0  0  0  0  0
   -1.9712    0.3272    3.2579 H   0  0  0  0  0  0  0  0  0  0  0  0
   -0.8417   -0.4864    2.1738 H   0  0  0  0  0  0  0  0  0  0  0  0
    4.7855   -1.1065   -3.8896 H   0  0  0  0  0  0  0  0  0  0  0  0
    5.6714   -2.6301   -5.8686 H   0  0  0  0  0  0  0  0  0  0  0  0
    8.6057   -4.6708   -5.0812 H   0  0  0  0  0  0  0  0  0  0  0  0
    7.2376   -5.7831   -4.8472 H   0  0  0  0  0  0  0  0  0  0  0  0
    7.2727   -4.6967   -6.2433 H   0  0  0  0  0  0  0  0  0  0  0  0
  1 22  1  0  0  0  0
  1 24  1  0  0  0  0
  2 16  1  0  0  0  0
  2 27  1  0  0  0  0
  3 10  1  0  0  0  0
  3 12  1  0  0  0  0
  3 18  1  0  0  0  0
  4 14  1  0  0  0  0
  4 28  1  0  0  0  0
  5 10  2  0  0  0  0
  5 14  1  0  0  0  0
  6 14  2  0  0  0  0
  6 15  1  0  0  0  0
  7 15  1  0  0  0  0
  7 20  1  0  0  0  0
  7 29  1  0  0  0  0
  8 13  1  0  0  0  0
  8 18  2  0  0  0  0
  9 16  1  0  0  0  0
  9 30  1  6  0  0  0
  9 11  1  0  0  0  0
  9  4  1  0  0  0  0
 10 13  1  0  0  0  0
 11 19  1  0  0  0  0
 11 31  1  0  0  0  0
 11 32  1  0  0  0  0
 12 17  1  0  0  0  0
 12 33  1  0  0  0  0
 12 34  1  0  0  0  0
 13 15  2  0  0  0  0
 16 35  1  0  0  0  0
 16 36  1  0  0  0  0
 17 21  1  0  0  0  0
 17 37  1  0  0  0  0
 17 38  1  0  0  0  0
 18 39  1  0  0  0  0
 19 40  1  0  0  0  0
 19 41  1  0  0  0  0
 19 42  1  0  0  0  0
 20 22  1  0  0  0  0
 20 43  1  0  0  0  0
 20 44  1  0  0  0  0
 21 45  1  0  0  0  0
 21 46  1  0  0  0  0
 21 47  1  0  0  0  0
 22 23  2  0  0  0  0
 23 25  1  0  0  0  0
 23 48  1  0  0  0  0
 24 25  2  0  0  0  0
 24 26  1  0  0  0  0
 25 49  1  0  0  0  0
 26 50  1  0  0  0  0
 26 51  1  0  0  0  0
 26 52  1  0  0  0  0
M  END
>  <Mol_ID>
6081

>  <Formula>
C18H26N6OS

>  <MolWeight>
374.50364

>  <Cat>
E0137

>  <Name>
GV-58

>  <Synonyms>
N/A

>  <Target>
Calcium Channel

>  <Form>
Free Base

>  <CAS>
1402821-41-3

>  <URL>
http://www.selleckchem.com/products/gv-58.html

$$$$
