GW2580.cdx
 OpenBabel08302520413D

 49 51  0  0  0  0  0  0  0  0999 V2000
    3.2803   -3.3984   -3.2711 N   0  0  0  0  0  0  0  0  0  0  0  0
    4.5496   -2.9892   -3.3253 C   0  0  0  0  0  0  0  0  0  0  0  0
    5.1720   -2.3184   -2.3544 N   0  0  0  0  0  0  0  0  0  0  0  0
    4.4382   -2.0370   -1.2627 C   0  0  0  0  0  0  0  0  0  0  0  0
    3.1145   -2.3923   -1.1040 C   0  0  0  0  0  0  0  0  0  0  0  0
    2.5757   -3.0835   -2.1727 C   0  0  0  0  0  0  0  0  0  0  0  0
    1.2474   -3.5147   -2.1851 N   0  0  0  0  0  0  0  0  0  0  0  0
    5.2867   -3.3150   -4.4439 N   0  0  0  0  0  0  0  0  0  0  0  0
    2.3632   -2.0276    0.1424 C   0  0  0  0  0  0  0  0  0  0  0  0
    2.4494   -3.0280    1.2744 C   0  0  0  0  0  0  0  0  0  0  0  0
    1.4868   -4.0323    1.4118 C   0  0  0  0  0  0  0  0  0  0  0  0
    1.5034   -4.8996    2.5136 C   0  0  0  0  0  0  0  0  0  0  0  0
    2.5006   -4.8028    3.4907 C   0  0  0  0  0  0  0  0  0  0  0  0
    3.5121   -3.8407    3.3236 C   0  0  0  0  0  0  0  0  0  0  0  0
    3.4676   -2.9532    2.2333 C   0  0  0  0  0  0  0  0  0  0  0  0
    4.5729   -3.6160    4.1672 O   0  0  0  0  0  0  0  0  0  0  0  0
    5.1074   -4.7656    4.8175 C   0  0  0  0  0  0  0  0  0  0  0  0
    2.4803   -5.5224    4.6575 O   0  0  0  0  0  0  0  0  0  0  0  0
    1.8330   -6.7974    4.6505 C   0  0  0  0  0  0  0  0  0  0  0  0
    1.9186   -7.4393    6.0238 C   0  0  0  0  0  0  0  0  0  0  0  0
    1.8734   -6.6747    7.1993 C   0  0  0  0  0  0  0  0  0  0  0  0
    1.9398   -7.2800    8.4607 C   0  0  0  0  0  0  0  0  0  0  0  0
    2.0503   -8.6650    8.5715 C   0  0  0  0  0  0  0  0  0  0  0  0
    2.0509   -9.4371    7.4087 C   0  0  0  0  0  0  0  0  0  0  0  0
    1.9792   -8.8332    6.1455 C   0  0  0  0  0  0  0  0  0  0  0  0
    2.1538   -9.3725    9.7369 O   0  0  0  0  0  0  0  0  0  0  0  0
    2.1983   -8.6193   10.9423 C   0  0  0  0  0  0  0  0  0  0  0  0
    4.9707   -1.4828   -0.4947 H   0  0  0  0  0  0  0  0  0  0  0  0
    1.0971   -3.9469   -3.0957 H   0  0  0  0  0  0  0  0  0  0  0  0
    0.6019   -2.7474   -2.0408 H   0  0  0  0  0  0  0  0  0  0  0  0
    4.9014   -4.1466   -4.8669 H   0  0  0  0  0  0  0  0  0  0  0  0
    6.2655   -3.3341   -4.2005 H   0  0  0  0  0  0  0  0  0  0  0  0
    2.7206   -1.0529    0.5037 H   0  0  0  0  0  0  0  0  0  0  0  0
    1.3077   -1.8391   -0.0936 H   0  0  0  0  0  0  0  0  0  0  0  0
    0.6875   -4.1277    0.6783 H   0  0  0  0  0  0  0  0  0  0  0  0
    0.6893   -5.6113    2.5951 H   0  0  0  0  0  0  0  0  0  0  0  0
    4.2375   -2.1888    2.1541 H   0  0  0  0  0  0  0  0  0  0  0  0
    4.5569   -4.9773    5.7381 H   0  0  0  0  0  0  0  0  0  0  0  0
    5.1394   -5.6405    4.1582 H   0  0  0  0  0  0  0  0  0  0  0  0
    6.1379   -4.5352    5.1064 H   0  0  0  0  0  0  0  0  0  0  0  0
    0.7705   -6.7063    4.4038 H   0  0  0  0  0  0  0  0  0  0  0  0
    2.3401   -7.4384    3.9189 H   0  0  0  0  0  0  0  0  0  0  0  0
    1.7831   -5.5899    7.1387 H   0  0  0  0  0  0  0  0  0  0  0  0
    1.9108   -6.6355    9.3335 H   0  0  0  0  0  0  0  0  0  0  0  0
    2.1161  -10.5185    7.4842 H   0  0  0  0  0  0  0  0  0  0  0  0
    1.9739   -9.4682    5.2626 H   0  0  0  0  0  0  0  0  0  0  0  0
    3.0370   -7.9149   10.9454 H   0  0  0  0  0  0  0  0  0  0  0  0
    1.2478   -8.1035   11.1135 H   0  0  0  0  0  0  0  0  0  0  0  0
    2.3527   -9.3186   11.7701 H   0  0  0  0  0  0  0  0  0  0  0  0
  1  2  2  0  0  0  0
  2  3  1  0  0  0  0
  2  8  1  0  0  0  0
  3  4  2  0  0  0  0
  4  5  1  0  0  0  0
  4 28  1  0  0  0  0
  5  6  2  0  0  0  0
  5  9  1  0  0  0  0
  6  1  1  0  0  0  0
  6  7  1  0  0  0  0
  7 29  1  0  0  0  0
  7 30  1  0  0  0  0
  8 31  1  0  0  0  0
  8 32  1  0  0  0  0
  9 10  1  0  0  0  0
  9 33  1  0  0  0  0
  9 34  1  0  0  0  0
 10 11  2  0  0  0  0
 11 12  1  0  0  0  0
 11 35  1  0  0  0  0
 12 13  2  0  0  0  0
 12 36  1  0  0  0  0
 13 14  1  0  0  0  0
 13 18  1  0  0  0  0
 14 15  2  0  0  0  0
 14 16  1  0  0  0  0
 15 10  1  0  0  0  0
 15 37  1  0  0  0  0
 16 17  1  0  0  0  0
 17 38  1  0  0  0  0
 17 39  1  0  0  0  0
 17 40  1  0  0  0  0
 18 19  1  0  0  0  0
 19 20  1  0  0  0  0
 19 41  1  0  0  0  0
 19 42  1  0  0  0  0
 20 21  2  0  0  0  0
 21 22  1  0  0  0  0
 21 43  1  0  0  0  0
 22 23  2  0  0  0  0
 22 44  1  0  0  0  0
 23 24  1  0  0  0  0
 23 26  1  0  0  0  0
 24 25  2  0  0  0  0
 24 45  1  0  0  0  0
 25 20  1  0  0  0  0
 25 46  1  0  0  0  0
 26 27  1  0  0  0  0
 27 47  1  0  0  0  0
 27 48  1  0  0  0  0
 27 49  1  0  0  0  0
M  END
>  <Mol_ID>
3881

>  <Formula>
C20H22N4O3

>  <MolWeight>
366.41368

>  <Cat>
S8042

>  <Name>
GW2580

>  <Synonyms>
SC-203877

>  <Target>
CSF-1R

>  <Form>
free base

>  <CAS>
870483-87-7

>  <URL>
http://selleckchem.com/products/gw2580.html

$$$$
