GW 441756.cdx
 OpenBabel08302522003D

 34 37  0  0  0  0  0  0  0  0999 V2000
   -4.0012    4.9413   -0.9140 C   0  0  0  0  0  0  0  0  0  0  0  0
   -3.9814    6.0503   -0.0361 C   0  0  0  0  0  0  0  0  0  0  0  0
   -3.7094    5.8574    1.3106 C   0  0  0  0  0  0  0  0  0  0  0  0
   -3.4568    4.5693    1.7207 C   0  0  0  0  0  0  0  0  0  0  0  0
   -3.4202    3.5567    0.7760 C   0  0  0  0  0  0  0  0  0  0  0  0
   -3.7111    3.6760   -0.5354 N   0  0  0  0  0  0  0  0  0  0  0  0
   -3.1200    4.0723    2.9807 N   0  0  0  0  0  0  0  0  0  0  0  0
   -2.8112    2.7258    2.9365 C   0  0  0  0  0  0  0  0  0  0  0  0
   -2.8312    2.4027    1.4555 C   0  0  0  0  0  0  0  0  0  0  0  0
   -1.8306    1.6259    0.9965 C   0  0  0  0  0  0  0  0  0  0  0  0
   -1.0889    2.0086   -0.1538 C   0  0  0  0  0  0  0  0  0  0  0  0
   -0.7568    1.2393   -1.2486 C   0  0  0  0  0  0  0  0  0  0  0  0
   -0.4809    2.2087   -2.2077 N   0  0  0  0  0  0  0  0  0  0  0  0
    0.3108    3.1265   -1.5246 C   0  0  0  0  0  0  0  0  0  0  0  0
   -0.2750    3.1878   -0.2603 C   0  0  0  0  0  0  0  0  0  0  0  0
    1.4679    3.8352   -1.8529 C   0  0  0  0  0  0  0  0  0  0  0  0
    1.9990    4.6550   -0.8477 C   0  0  0  0  0  0  0  0  0  0  0  0
    1.3149    4.8791    0.3490 C   0  0  0  0  0  0  0  0  0  0  0  0
    0.1353    4.1882    0.6393 C   0  0  0  0  0  0  0  0  0  0  0  0
   -2.4772    2.0007    3.8562 O   0  0  0  0  0  0  0  0  0  0  0  0
   -1.5831    2.6430   -3.0804 C   0  0  0  0  0  0  0  0  0  0  0  0
   -4.2307    5.0600   -1.9678 H   0  0  0  0  0  0  0  0  0  0  0  0
   -4.1614    7.0352   -0.4434 H   0  0  0  0  0  0  0  0  0  0  0  0
   -3.6563    6.6952    1.9923 H   0  0  0  0  0  0  0  0  0  0  0  0
   -3.0400    4.6207    3.8289 H   0  0  0  0  0  0  0  0  0  0  0  0
   -1.3486    0.9077    1.6505 H   0  0  0  0  0  0  0  0  0  0  0  0
   -0.8818    0.2031   -1.5191 H   0  0  0  0  0  0  0  0  0  0  0  0
    1.9949    3.6668   -2.7853 H   0  0  0  0  0  0  0  0  0  0  0  0
    2.9744    5.1120   -0.9905 H   0  0  0  0  0  0  0  0  0  0  0  0
    1.7408    5.5331    1.1061 H   0  0  0  0  0  0  0  0  0  0  0  0
   -0.3382    4.3033    1.6088 H   0  0  0  0  0  0  0  0  0  0  0  0
   -2.5229    2.2269   -2.6941 H   0  0  0  0  0  0  0  0  0  0  0  0
   -1.6581    3.7350   -3.0683 H   0  0  0  0  0  0  0  0  0  0  0  0
   -1.4054    2.2687   -4.0879 H   0  0  0  0  0  0  0  0  0  0  0  0
  1  2  2  0  0  0  0
  1 22  1  0  0  0  0
  2  3  1  0  0  0  0
  2 23  1  0  0  0  0
  3  4  2  0  0  0  0
  3 24  1  0  0  0  0
  4  5  1  0  0  0  0
  4  7  1  0  0  0  0
  5  6  2  0  0  0  0
  6  1  1  0  0  0  0
  7  8  1  0  0  0  0
  7 25  1  0  0  0  0
  8  9  1  0  0  0  0
  8 20  2  0  0  0  0
  9  5  1  0  0  0  0
  9 10  2  3  0  0  0
 10 11  1  0  0  0  0
 10 26  1  0  0  0  0
 11 12  2  0  0  0  0
 12 13  1  0  0  0  0
 12 27  1  0  0  0  0
 13 14  1  0  0  0  0
 13 21  1  0  0  0  0
 14 15  2  0  0  0  0
 14 16  1  0  0  0  0
 15 11  1  0  0  0  0
 16 17  2  0  0  0  0
 16 28  1  0  0  0  0
 17 18  1  0  0  0  0
 17 29  1  0  0  0  0
 18 19  2  0  0  0  0
 18 30  1  0  0  0  0
 19 15  1  0  0  0  0
 19 31  1  0  0  0  0
 21 32  1  0  0  0  0
 21 33  1  0  0  0  0
 21 34  1  0  0  0  0
M  END
>  <Mol_ID>
1067

>  <Formula>
C17H13N3O

>  <MolWeight>
275.30462

>  <Cat>
S2891

>  <Name>
GW441756

>  <Synonyms>
N/A

>  <Target>
Apoptosis related,Caspase,Trk receptor

>  <Form>
free base

>  <CAS>
504433-23-2

>  <URL>
http://selleckchem.com/products/gw-441756.html

$$$$
