H-1152 dihydrochloride
 OpenBabel08302521313D

 43 45  0  0  0  0  0  0  0  0999 V2000
    0.9292    0.2145    0.1360 S   0  0  0  0  0  0  0  0  0  0  0  0
    0.4102   -0.5425   -0.9843 O   0  0  0  0  0  0  0  0  0  0  0  0
    0.4919   -0.1286    1.4766 O   0  0  0  0  0  0  0  0  0  0  0  0
    0.5737    1.8820   -0.0769 N   0  0  0  0  0  0  0  0  0  0  0  0
    0.0774    5.1666    0.1212 N   0  0  0  0  0  0  0  0  0  0  0  0
    5.3873    0.7749   -3.3172 N   0  0  0  0  0  0  0  0  0  0  0  0
    0.8431    2.8703    1.0471 C   0  0  2  0  0  0  0  0  0  0  0  0
   -0.7716    2.0809   -0.7197 C   0  0  0  0  0  0  0  0  0  0  0  0
    1.1867    4.2582    0.4249 C   0  0  0  0  0  0  0  0  0  0  0  0
   -0.9283    3.4390   -1.3992 C   0  0  0  0  0  0  0  0  0  0  0  0
   -1.1375    4.5633   -0.4041 C   0  0  0  0  0  0  0  0  0  0  0  0
    2.0127    2.5020    1.9629 C   0  0  0  0  0  0  0  0  0  0  0  0
    2.7166    0.0523    0.0330 C   0  0  0  0  0  0  0  0  0  0  0  0
    3.5016    0.3768   -1.1508 C   0  0  0  0  0  0  0  0  0  0  0  0
    3.2959   -0.5789    1.1600 C   0  0  0  0  0  0  0  0  0  0  0  0
    4.8648   -0.0310   -1.0778 C   0  0  0  0  0  0  0  0  0  0  0  0
    3.1591    1.0447   -2.3906 C   0  0  0  0  0  0  0  0  0  0  0  0
    4.6401   -0.9081    1.1796 C   0  0  0  0  0  0  0  0  0  0  0  0
    5.4107   -0.6474    0.0602 C   0  0  0  0  0  0  0  0  0  0  0  0
    5.7200    0.1771   -2.1638 C   0  0  0  0  0  0  0  0  0  0  0  0
    4.1232    1.2016   -3.3962 C   0  0  0  0  0  0  0  0  0  0  0  0
    1.8584    1.7097   -2.6973 C   0  0  0  0  0  0  0  0  0  0  0  0
    0.4153    5.8811   -0.5248 H   0  0  0  0  0  0  0  0  0  0  0  0
   -0.0526    2.9478    1.6760 H   0  0  0  0  0  0  0  0  0  0  0  0
   -0.9033    1.3445   -1.5195 H   0  0  0  0  0  0  0  0  0  0  0  0
   -1.5692    1.9034    0.0089 H   0  0  0  0  0  0  0  0  0  0  0  0
    1.8378    4.8192    1.1060 H   0  0  0  0  0  0  0  0  0  0  0  0
    1.7839    4.1125   -0.4833 H   0  0  0  0  0  0  0  0  0  0  0  0
   -1.8170    3.3870   -2.0471 H   0  0  0  0  0  0  0  0  0  0  0  0
   -0.0953    3.6663   -2.0754 H   0  0  0  0  0  0  0  0  0  0  0  0
   -1.7624    4.2205    0.4294 H   0  0  0  0  0  0  0  0  0  0  0  0
   -1.7114    5.3611   -0.8909 H   0  0  0  0  0  0  0  0  0  0  0  0
    1.8243    1.5944    2.5387 H   0  0  0  0  0  0  0  0  0  0  0  0
    2.9459    2.3904    1.4040 H   0  0  0  0  0  0  0  0  0  0  0  0
    2.1765    3.2908    2.7072 H   0  0  0  0  0  0  0  0  0  0  0  0
    2.6960   -0.8357    2.0321 H   0  0  0  0  0  0  0  0  0  0  0  0
    5.0795   -1.3899    2.0497 H   0  0  0  0  0  0  0  0  0  0  0  0
    6.4620   -0.9361    0.0792 H   0  0  0  0  0  0  0  0  0  0  0  0
    6.7569   -0.1504   -2.1338 H   0  0  0  0  0  0  0  0  0  0  0  0
    3.8876    1.7216   -4.3227 H   0  0  0  0  0  0  0  0  0  0  0  0
    1.0277    1.0111   -2.6702 H   0  0  0  0  0  0  0  0  0  0  0  0
    1.7459    2.5485   -2.0172 H   0  0  0  0  0  0  0  0  0  0  0  0
    1.8327    2.1555   -3.6979 H   0  0  0  0  0  0  0  0  0  0  0  0
  1  2  2  0  0  0  0
  1  3  2  0  0  0  0
  1  4  1  0  0  0  0
  1 13  1  0  0  0  0
  4  7  1  0  0  0  0
  4  8  1  0  0  0  0
  5  9  1  0  0  0  0
  5 11  1  0  0  0  0
  5 23  1  0  0  0  0
  6 20  2  0  0  0  0
  6 21  1  0  0  0  0
  7  9  1  0  0  0  0
  7 24  1  1  0  0  0
  7 12  1  0  0  0  0
  8 10  1  0  0  0  0
  8 25  1  0  0  0  0
  8 26  1  0  0  0  0
  9 27  1  0  0  0  0
  9 28  1  0  0  0  0
 10 11  1  0  0  0  0
 10 29  1  0  0  0  0
 10 30  1  0  0  0  0
 11 31  1  0  0  0  0
 11 32  1  0  0  0  0
 12 33  1  0  0  0  0
 12 34  1  0  0  0  0
 12 35  1  0  0  0  0
 13 14  1  0  0  0  0
 13 15  2  0  0  0  0
 14 16  2  0  0  0  0
 14 17  1  0  0  0  0
 15 18  1  0  0  0  0
 15 36  1  0  0  0  0
 16 19  1  0  0  0  0
 16 20  1  0  0  0  0
 17 21  2  0  0  0  0
 17 22  1  0  0  0  0
 18 19  2  0  0  0  0
 18 37  1  0  0  0  0
 19 38  1  0  0  0  0
 20 39  1  0  0  0  0
 21 40  1  0  0  0  0
 22 41  1  0  0  0  0
 22 42  1  0  0  0  0
 22 43  1  0  0  0  0
M  END
>  <Mol_ID>
5888

>  <Formula>
C16H23Cl2N3O2S

>  <MolWeight>
392.34372

>  <Cat>
S6214

>  <Name>
H-1152 dihydrochloride

>  <Synonyms>
H-1152 2HCl

>  <Target>
Aurora Kinase,CaMK,PKA,PKC,PKG,ROCK

>  <Form>
Dihydrochloride

>  <CAS>
871543-07-6

>  <URL>
http://www.selleckchem.com/products/h-1152-dihydrochloride.html

$$$$
