H-Abu-OH
 OpenBabel08302521383D

 16 15  0  0  0  0  0  0  0  0999 V2000
    0.9279   -0.0865    0.0250 C   0  0  2  0  0  0  0  0  0  0  0  0
    0.3897   -1.0309    1.1194 C   0  0  0  0  0  0  0  0  0  0  0  0
    0.4147    1.3473    0.2012 C   0  0  0  0  0  0  0  0  0  0  0  0
    0.4930   -0.5856   -1.3007 N   0  0  0  0  0  0  0  0  0  0  0  0
    1.2099   -1.1575    2.1855 O   0  0  0  0  0  0  0  0  0  0  0  0
   -0.6744   -1.6306    1.0395 O   0  0  0  0  0  0  0  0  0  0  0  0
    0.9070    2.0130    1.4783 C   0  0  0  0  0  0  0  0  0  0  0  0
    2.0229   -0.1111    0.0367 H   0  0  0  0  0  0  0  0  0  0  0  0
    0.7445    1.9581   -0.6479 H   0  0  0  0  0  0  0  0  0  0  0  0
   -0.6835    1.3639    0.1979 H   0  0  0  0  0  0  0  0  0  0  0  0
    0.7908   -1.5585   -1.3988 H   0  0  0  0  0  0  0  0  0  0  0  0
   -0.5313   -0.6496   -1.2841 H   0  0  0  0  0  0  0  0  0  0  0  0
    2.0369   -0.6442    2.1233 H   0  0  0  0  0  0  0  0  0  0  0  0
    2.0002    2.0635    1.4973 H   0  0  0  0  0  0  0  0  0  0  0  0
    0.5199    3.0351    1.5412 H   0  0  0  0  0  0  0  0  0  0  0  0
    0.5676    1.4773    2.3695 H   0  0  0  0  0  0  0  0  0  0  0  0
  1  2  1  0  0  0  0
  1  3  1  0  0  0  0
  1  4  1  0  0  0  0
  1  8  1  1  0  0  0
  2  5  1  0  0  0  0
  2  6  2  0  0  0  0
  3  7  1  0  0  0  0
  3  9  1  0  0  0  0
  3 10  1  0  0  0  0
  4 11  1  0  0  0  0
  4 12  1  0  0  0  0
  5 13  1  0  0  0  0
  7 14  1  0  0  0  0
  7 15  1  0  0  0  0
  7 16  1  0  0  0  0
M  END
>  <Mol_ID>
7913

>  <Formula>
C4H9NO2

>  <MolWeight>
103.11976

>  <Cat>
S6203

>  <Name>
H-Abu-OH

>  <Synonyms>
2-Aminobutyric acid, 2-Aminobutanoic acid, Homoalanine, ¦Á-Aminobutanoic acid, Ethylglycine

>  <Target>
Others

>  <Form>
free base

>  <CAS>
1492-24-6

>  <URL>
http://www.selleck.cn/products/h-abu-oh.html

$$$$
