H-Gly-Pro-OH
 OpenBabel08302521383D

 24 24  0  0  0  0  0  0  0  0999 V2000
   -1.1565    0.5110    0.3154 N   0  0  0  0  0  0  0  0  0  0  0  0
   -1.0442   -0.8843   -0.1505 C   0  0  1  0  0  0  0  0  0  0  0  0
    0.1348    1.1851    0.2346 C   0  0  0  0  0  0  0  0  0  0  0  0
   -2.3523    1.1857    0.4127 C   0  0  0  0  0  0  0  0  0  0  0  0
    0.4307   -1.1904    0.1523 C   0  0  0  0  0  0  0  0  0  0  0  0
   -1.8578   -2.0720    0.4082 C   0  0  0  0  0  0  0  0  0  0  0  0
    1.1478    0.1145   -0.1362 C   0  0  0  0  0  0  0  0  0  0  0  0
   -2.3391    2.7049    0.6416 C   0  0  0  0  0  0  0  0  0  0  0  0
   -3.4159    0.5592    0.4222 O   0  0  0  0  0  0  0  0  0  0  0  0
   -2.8842   -1.7730    1.2243 O   0  0  0  0  0  0  0  0  0  0  0  0
   -1.6068   -3.2347    0.1091 O   0  0  0  0  0  0  0  0  0  0  0  0
   -2.1162    3.0035    2.0593 N   0  0  0  0  0  0  0  0  0  0  0  0
   -1.2260   -0.8538   -1.2330 H   0  0  0  0  0  0  0  0  0  0  0  0
    0.3558    1.6561    1.1964 H   0  0  0  0  0  0  0  0  0  0  0  0
    0.1055    1.9551   -0.5436 H   0  0  0  0  0  0  0  0  0  0  0  0
    0.5550   -1.4486    1.2129 H   0  0  0  0  0  0  0  0  0  0  0  0
    0.8237   -2.0231   -0.4392 H   0  0  0  0  0  0  0  0  0  0  0  0
    2.0816    0.2146    0.4243 H   0  0  0  0  0  0  0  0  0  0  0  0
    1.3912    0.1765   -1.2041 H   0  0  0  0  0  0  0  0  0  0  0  0
   -1.5793    3.1886    0.0249 H   0  0  0  0  0  0  0  0  0  0  0  0
   -3.3094    3.1025    0.3232 H   0  0  0  0  0  0  0  0  0  0  0  0
   -3.1290   -0.8168    1.1747 H   0  0  0  0  0  0  0  0  0  0  0  0
   -2.2130    4.0121    2.2044 H   0  0  0  0  0  0  0  0  0  0  0  0
   -2.8702    2.5813    2.6040 H   0  0  0  0  0  0  0  0  0  0  0  0
  1  3  1  0  0  0  0
  1  4  1  0  0  0  0
  2  1  1  0  0  0  0
  2  5  1  0  0  0  0
  2 13  1  6  0  0  0
  2  6  1  0  0  0  0
  3  7  1  0  0  0  0
  3 14  1  0  0  0  0
  3 15  1  0  0  0  0
  4  8  1  0  0  0  0
  4  9  2  0  0  0  0
  5  7  1  0  0  0  0
  5 16  1  0  0  0  0
  5 17  1  0  0  0  0
  6 10  1  0  0  0  0
  6 11  2  0  0  0  0
  7 18  1  0  0  0  0
  7 19  1  0  0  0  0
  8 12  1  0  0  0  0
  8 20  1  0  0  0  0
  8 21  1  0  0  0  0
 10 22  1  0  0  0  0
 12 23  1  0  0  0  0
 12 24  1  0  0  0  0
M  END
>  <Mol_ID>
7906

>  <Formula>
C7H12N2O3

>  <MolWeight>
172.18178

>  <Cat>
S6133

>  <Name>
H-Gly-Pro-OH

>  <Synonyms>
Glycyl proline, Glycyl-L-proline

>  <Target>
Others

>  <Form>
free base

>  <CAS>
704-15-4

>  <URL>
http://www.selleck.cn/products/h-gly-pro-oh.html

$$$$
