H-Leu-Leu-OMe Hydrochloride
 OpenBabel08302521343D

 44 43  0  0  0  0  0  0  0  0999 V2000
    0.4691    6.7213   -2.5748 C   0  0  2  0  0  0  0  0  0  0  0  0
    0.1695    5.6764   -1.5923 N   0  0  0  0  0  0  0  0  0  0  0  0
    0.1569    6.3851   -4.0506 C   0  0  0  0  0  0  0  0  0  0  0  0
    1.9328    7.1930   -2.4104 C   0  0  0  0  0  0  0  0  0  0  0  0
   -1.1248    5.3003   -1.2926 C   0  0  0  0  0  0  0  0  0  0  0  0
   -0.3394    5.1239   -4.2010 O   0  0  0  0  0  0  0  0  0  0  0  0
    0.3659    7.1603   -4.9773 O   0  0  0  0  0  0  0  0  0  0  0  0
    3.0178    6.0887   -2.3804 C   0  0  0  0  0  0  0  0  0  0  0  0
   -1.2374    4.1945   -0.2015 C   0  0  2  0  0  0  0  0  0  0  0  0
   -2.0922    5.7661   -1.8856 O   0  0  0  0  0  0  0  0  0  0  0  0
   -0.7430    4.7843   -5.5293 C   0  0  0  0  0  0  0  0  0  0  0  0
    3.1673    5.3525   -3.7097 C   0  0  0  0  0  0  0  0  0  0  0  0
    4.3694    6.6888   -1.9790 C   0  0  0  0  0  0  0  0  0  0  0  0
   -2.1462    4.5856    0.9752 C   0  0  0  0  0  0  0  0  0  0  0  0
    0.0956    3.8397    0.3539 N   0  0  0  0  0  0  0  0  0  0  0  0
   -3.6195    4.8864    0.6345 C   0  0  0  0  0  0  0  0  0  0  0  0
   -4.3373    3.7106   -0.0283 C   0  0  0  0  0  0  0  0  0  0  0  0
   -4.3749    5.2923    1.9048 C   0  0  0  0  0  0  0  0  0  0  0  0
   -0.1967    7.5619   -2.3374 H   0  0  0  0  0  0  0  0  0  0  0  0
    0.8271    5.5446   -0.8402 H   0  0  0  0  0  0  0  0  0  0  0  0
    2.1788    7.9292   -3.1857 H   0  0  0  0  0  0  0  0  0  0  0  0
    1.9844    7.7328   -1.4531 H   0  0  0  0  0  0  0  0  0  0  0  0
    2.7659    5.3487   -1.6124 H   0  0  0  0  0  0  0  0  0  0  0  0
   -1.6103    3.2948   -0.7001 H   0  0  0  0  0  0  0  0  0  0  0  0
   -1.3201    5.5906   -5.9936 H   0  0  0  0  0  0  0  0  0  0  0  0
    0.1351    4.5385   -6.1313 H   0  0  0  0  0  0  0  0  0  0  0  0
   -1.3842    3.8995   -5.4690 H   0  0  0  0  0  0  0  0  0  0  0  0
    3.3897    6.0472   -4.5261 H   0  0  0  0  0  0  0  0  0  0  0  0
    3.9812    4.6213   -3.6564 H   0  0  0  0  0  0  0  0  0  0  0  0
    2.2639    4.7946   -3.9636 H   0  0  0  0  0  0  0  0  0  0  0  0
    4.2952    7.2226   -1.0258 H   0  0  0  0  0  0  0  0  0  0  0  0
    5.1179    5.8980   -1.8552 H   0  0  0  0  0  0  0  0  0  0  0  0
    4.7376    7.3882   -2.7365 H   0  0  0  0  0  0  0  0  0  0  0  0
   -2.1233    3.7773    1.7201 H   0  0  0  0  0  0  0  0  0  0  0  0
   -1.7218    5.4714    1.4688 H   0  0  0  0  0  0  0  0  0  0  0  0
    0.7271    3.5954   -0.4073 H   0  0  0  0  0  0  0  0  0  0  0  0
    0.4794    4.6080    0.8972 H   0  0  0  0  0  0  0  0  0  0  0  0
   -3.6598    5.7441   -0.0444 H   0  0  0  0  0  0  0  0  0  0  0  0
   -4.4781    2.8827    0.6753 H   0  0  0  0  0  0  0  0  0  0  0  0
   -5.3264    4.0221   -0.3805 H   0  0  0  0  0  0  0  0  0  0  0  0
   -3.7932    3.3298   -0.8962 H   0  0  0  0  0  0  0  0  0  0  0  0
   -3.8671    6.1159    2.4181 H   0  0  0  0  0  0  0  0  0  0  0  0
   -5.3886    5.6265    1.6594 H   0  0  0  0  0  0  0  0  0  0  0  0
   -4.4553    4.4546    2.6063 H   0  0  0  0  0  0  0  0  0  0  0  0
  1  2  1  0  0  0  0
  1  3  1  0  0  0  0
  1  4  1  0  0  0  0
  1 19  1  1  0  0  0
  2  5  1  0  0  0  0
  2 20  1  0  0  0  0
  3  6  1  0  0  0  0
  3  7  2  0  0  0  0
  4  8  1  0  0  0  0
  4 21  1  0  0  0  0
  4 22  1  0  0  0  0
  5 10  2  0  0  0  0
  6 11  1  0  0  0  0
  8 12  1  0  0  0  0
  8 13  1  0  0  0  0
  8 23  1  0  0  0  0
  9 15  1  0  0  0  0
  9 24  1  6  0  0  0
  9 14  1  0  0  0  0
  9  5  1  0  0  0  0
 11 25  1  0  0  0  0
 11 26  1  0  0  0  0
 11 27  1  0  0  0  0
 12 28  1  0  0  0  0
 12 29  1  0  0  0  0
 12 30  1  0  0  0  0
 13 31  1  0  0  0  0
 13 32  1  0  0  0  0
 13 33  1  0  0  0  0
 14 16  1  0  0  0  0
 14 34  1  0  0  0  0
 14 35  1  0  0  0  0
 15 36  1  0  0  0  0
 15 37  1  0  0  0  0
 16 17  1  0  0  0  0
 16 18  1  0  0  0  0
 16 38  1  0  0  0  0
 17 39  1  0  0  0  0
 17 40  1  0  0  0  0
 17 41  1  0  0  0  0
 18 42  1  0  0  0  0
 18 43  1  0  0  0  0
 18 44  1  0  0  0  0
M  END
>  <Mol_ID>
6475

>  <Formula>
C13H27ClN2O3

>  <MolWeight>
294.81808

>  <Cat>
E2634

>  <Name>
H-Leu-Leu-OMe Hydrochloride

>  <Synonyms>
H-LEU-LEU-OME HCL

>  <Target>
Immunology & Inflammation related

>  <Form>
hydrochloride

>  <CAS>
6491-83-4

>  <URL>
http://www.selleckchem.com/products/h-leu-leu-ome-hydrochloride.html

$$$$
