H-Tyr-OMe
 OpenBabel08302521363D

 27 27  0  0  1  0  0  0  0  0999 V2000
    0.9906    0.0373    0.1803 C   0  0  0  0  0  0  0  0  0  0  0  0
    0.4038   -1.2831   -0.3510 C   0  0  1  0  0  0  0  0  0  0  0  0
   -1.0904   -1.1314   -0.6879 C   0  0  0  0  0  0  0  0  0  0  0  0
    1.1597   -1.6965   -1.5672 N   0  0  0  0  0  0  0  0  0  0  0  0
   -1.8276   -1.0652    0.4562 O   0  0  0  0  0  0  0  0  0  0  0  0
   -1.5474   -1.1142   -1.8244 O   0  0  0  0  0  0  0  0  0  0  0  0
   -3.2373   -0.8879    0.3080 C   0  0  0  0  0  0  0  0  0  0  0  0
   -0.8059    1.5665    5.3368 O   0  0  0  0  0  0  0  0  0  0  0  0
    0.5177    0.4336    1.5613 C   0  0  0  0  0  0  0  0  0  0  0  0
    0.7390   -0.4064    2.6632 C   0  0  0  0  0  0  0  0  0  0  0  0
   -0.1407    1.6564    1.7615 C   0  0  0  0  0  0  0  0  0  0  0  0
    0.2949   -0.0427    3.9361 C   0  0  0  0  0  0  0  0  0  0  0  0
   -0.5791    2.0221    3.0359 C   0  0  0  0  0  0  0  0  0  0  0  0
   -0.3610    1.1703    4.1106 C   0  0  0  0  0  0  0  0  0  0  0  0
    0.7673    0.8460   -0.5289 H   0  0  0  0  0  0  0  0  0  0  0  0
    2.0865   -0.0324    0.2256 H   0  0  0  0  0  0  0  0  0  0  0  0
    0.5040   -2.0999    0.3714 H   0  0  0  0  0  0  0  0  0  0  0  0
    0.6565   -2.4741   -2.0028 H   0  0  0  0  0  0  0  0  0  0  0  0
    1.0921   -0.9444   -2.2590 H   0  0  0  0  0  0  0  0  0  0  0  0
   -3.5129   -0.4160   -0.6393 H   0  0  0  0  0  0  0  0  0  0  0  0
   -3.7270   -1.8600    0.4031 H   0  0  0  0  0  0  0  0  0  0  0  0
   -3.5810   -0.2432    1.1232 H   0  0  0  0  0  0  0  0  0  0  0  0
   -0.5634    0.8860    5.9869 H   0  0  0  0  0  0  0  0  0  0  0  0
    1.2598   -1.3545    2.5382 H   0  0  0  0  0  0  0  0  0  0  0  0
   -0.3205    2.3330    0.9298 H   0  0  0  0  0  0  0  0  0  0  0  0
    0.4702   -0.7140    4.7702 H   0  0  0  0  0  0  0  0  0  0  0  0
   -1.0883    2.9692    3.1882 H   0  0  0  0  0  0  0  0  0  0  0  0
  1  2  1  0  0  0  0
  1  9  1  0  0  0  0
  1 15  1  0  0  0  0
  1 16  1  0  0  0  0
  2  3  1  0  0  0  0
  2  4  1  0  0  0  0
  2 17  1  1  0  0  0
  3  5  1  0  0  0  0
  3  6  2  0  0  0  0
  4 18  1  0  0  0  0
  4 19  1  0  0  0  0
  5  7  1  0  0  0  0
  7 20  1  0  0  0  0
  7 21  1  0  0  0  0
  7 22  1  0  0  0  0
  8 14  1  0  0  0  0
  8 23  1  0  0  0  0
  9 10  2  0  0  0  0
  9 11  1  0  0  0  0
 10 12  1  0  0  0  0
 10 24  1  0  0  0  0
 11 13  2  0  0  0  0
 11 25  1  0  0  0  0
 12 14  2  0  0  0  0
 12 26  1  0  0  0  0
 13 14  1  0  0  0  0
 13 27  1  0  0  0  0
M  END
>  <Mol_ID>
7159

>  <Formula>
C10H13NO3

>  <MolWeight>
195.21512

>  <Cat>
E4150

>  <Name>
H-Tyr-OMe

>  <Synonyms>
L-Tyrosine methyl ester

>  <Target>
Others

>  <Form>
Free base

>  <CAS>
1080-06-4

>  <URL>
https://www.selleckchem.com/products/h-tyr-ome.html

$$$$
