Harmane
 OpenBabel08302521313D

 24 26  0  0  0  0  0  0  0  0999 V2000
   -0.0130   -1.6221    0.0014 N   0  0  0  0  0  0  0  0  0  0  0  0
    3.4035   -0.2348   -0.0010 N   0  0  0  0  0  0  0  0  0  0  0  0
    0.7097    0.4819   -0.0005 C   0  0  0  0  0  0  0  0  0  0  0  0
    1.1234   -0.8483    0.0003 C   0  0  0  0  0  0  0  0  0  0  0  0
   -0.7230    0.4859    0.0005 C   0  0  0  0  0  0  0  0  0  0  0  0
   -1.1435   -0.8427    0.0012 C   0  0  0  0  0  0  0  0  0  0  0  0
    2.4703   -1.2236   -0.0000 C   0  0  0  0  0  0  0  0  0  0  0  0
    1.6907    1.4835   -0.0014 C   0  0  0  0  0  0  0  0  0  0  0  0
   -1.7021    1.4999   -0.0006 C   0  0  0  0  0  0  0  0  0  0  0  0
   -2.4920   -1.2154    0.0009 C   0  0  0  0  0  0  0  0  0  0  0  0
   -3.0573    1.1460   -0.0005 C   0  0  0  0  0  0  0  0  0  0  0  0
   -3.4430   -0.1923   -0.0004 C   0  0  0  0  0  0  0  0  0  0  0  0
    3.0092    1.0578   -0.0016 C   0  0  0  0  0  0  0  0  0  0  0  0
    2.9389   -2.6436    0.0003 C   0  0  0  0  0  0  0  0  0  0  0  0
   -0.0183   -2.6313    0.0008 H   0  0  0  0  0  0  0  0  0  0  0  0
    1.4389    2.5364   -0.0021 H   0  0  0  0  0  0  0  0  0  0  0  0
   -1.4128    2.5461   -0.0007 H   0  0  0  0  0  0  0  0  0  0  0  0
   -2.7951   -2.2574    0.0008 H   0  0  0  0  0  0  0  0  0  0  0  0
   -3.8147    1.9259   -0.0006 H   0  0  0  0  0  0  0  0  0  0  0  0
   -4.5006   -0.4467   -0.0001 H   0  0  0  0  0  0  0  0  0  0  0  0
    3.8206    1.7810   -0.0025 H   0  0  0  0  0  0  0  0  0  0  0  0
    2.5665   -3.1602    0.8902 H   0  0  0  0  0  0  0  0  0  0  0  0
    2.5665   -3.1602   -0.8897 H   0  0  0  0  0  0  0  0  0  0  0  0
    4.0316   -2.6990    0.0002 H   0  0  0  0  0  0  0  0  0  0  0  0
  1  4  1  0  0  0  0
  1  6  1  0  0  0  0
  1 15  1  0  0  0  0
  2  7  2  0  0  0  0
  2 13  1  0  0  0  0
  3  4  2  0  0  0  0
  3  5  1  0  0  0  0
  3  8  1  0  0  0  0
  4  7  1  0  0  0  0
  5  6  2  0  0  0  0
  5  9  1  0  0  0  0
  6 10  1  0  0  0  0
  7 14  1  0  0  0  0
  8 13  2  0  0  0  0
  8 16  1  0  0  0  0
  9 11  2  0  0  0  0
  9 17  1  0  0  0  0
 10 12  2  0  0  0  0
 10 18  1  0  0  0  0
 11 12  1  0  0  0  0
 11 19  1  0  0  0  0
 12 20  1  0  0  0  0
 13 21  1  0  0  0  0
 14 22  1  0  0  0  0
 14 23  1  0  0  0  0
 14 24  1  0  0  0  0
M  END
>  <Mol_ID>
5820

>  <Formula>
C12H10N2

>  <MolWeight>
182.2212

>  <Cat>
E0009

>  <Name>
Harmane

>  <Synonyms>
Harman, Aribine, Aribin, Locuturine, Locuturin, Loturine, Passiflorin, 1-Methylnorharman, NSC 54439

>  <Target>
MAO

>  <Form>
Free Base

>  <CAS>
486-84-0

>  <URL>
http://www.selleckchem.com/products/harmane.html

$$$$
