Heclin
 OpenBabel08302521373D

 38 39  0  0  0  0  0  0  0  0999 V2000
    0.6925   -0.5004    0.8273 C   0  0  0  0  0  0  0  0  0  0  0  0
    0.0963   -1.1861   -0.1593 C   0  0  0  0  0  0  0  0  0  0  0  0
   -1.3378   -1.0166   -0.5145 C   0  0  0  0  0  0  0  0  0  0  0  0
   -2.0526   -2.1991   -0.4517 N   0  0  0  0  0  0  0  0  0  0  0  0
   -1.7425    0.0898   -0.8481 O   0  0  0  0  0  0  0  0  0  0  0  0
   -3.1111    0.9133    3.4992 C   0  0  0  0  0  0  0  0  0  0  0  0
   -4.1071    0.8791    2.3487 C   0  0  0  0  0  0  0  0  0  0  0  0
   -7.7275   -2.5950   -1.0544 C   0  0  0  0  0  0  0  0  0  0  0  0
   -8.4595   -3.8955   -1.2188 C   0  0  0  0  0  0  0  0  0  0  0  0
   -8.3398   -1.5305   -1.0171 O   0  0  0  0  0  0  0  0  0  0  0  0
   -0.0196    0.3082    1.7564 C   0  0  0  0  0  0  0  0  0  0  0  0
   -1.2933    0.0182    2.1884 O   0  0  0  0  0  0  0  0  0  0  0  0
    0.3853    1.4661    2.4096 C   0  0  0  0  0  0  0  0  0  0  0  0
   -1.7131    1.0105    3.0123 C   0  0  0  0  0  0  0  0  0  0  0  0
   -0.7016    1.9249    3.1981 C   0  0  0  0  0  0  0  0  0  0  0  0
   -3.4405   -2.3269   -0.6945 C   0  0  0  0  0  0  0  0  0  0  0  0
   -4.2017   -1.3107   -1.2765 C   0  0  0  0  0  0  0  0  0  0  0  0
   -4.0899   -3.5063   -0.3045 C   0  0  0  0  0  0  0  0  0  0  0  0
   -5.5853   -1.4297   -1.3971 C   0  0  0  0  0  0  0  0  0  0  0  0
   -5.4851   -3.6337   -0.4276 C   0  0  0  0  0  0  0  0  0  0  0  0
   -6.2398   -2.5833   -0.9596 C   0  0  0  0  0  0  0  0  0  0  0  0
    1.7722   -0.5494    0.9296 H   0  0  0  0  0  0  0  0  0  0  0  0
    0.6705   -1.7964   -0.8431 H   0  0  0  0  0  0  0  0  0  0  0  0
   -1.5791   -3.0034   -0.0626 H   0  0  0  0  0  0  0  0  0  0  0  0
   -3.2232    0.0104    4.1092 H   0  0  0  0  0  0  0  0  0  0  0  0
   -3.3380    1.7696    4.1448 H   0  0  0  0  0  0  0  0  0  0  0  0
   -3.9699   -0.0157    1.7327 H   0  0  0  0  0  0  0  0  0  0  0  0
   -5.1325    0.8676    2.7326 H   0  0  0  0  0  0  0  0  0  0  0  0
   -3.9943    1.7533    1.6983 H   0  0  0  0  0  0  0  0  0  0  0  0
   -9.0660   -4.0820   -0.3286 H   0  0  0  0  0  0  0  0  0  0  0  0
   -9.1101   -3.8129   -2.0951 H   0  0  0  0  0  0  0  0  0  0  0  0
   -7.7904   -4.7411   -1.3864 H   0  0  0  0  0  0  0  0  0  0  0  0
    1.3436    1.9514    2.2916 H   0  0  0  0  0  0  0  0  0  0  0  0
   -0.7481    2.8168    3.8030 H   0  0  0  0  0  0  0  0  0  0  0  0
   -3.7503   -0.3931   -1.6410 H   0  0  0  0  0  0  0  0  0  0  0  0
   -3.5293   -4.3246    0.1414 H   0  0  0  0  0  0  0  0  0  0  0  0
   -6.1506   -0.6016   -1.8216 H   0  0  0  0  0  0  0  0  0  0  0  0
   -5.9609   -4.5389   -0.0619 H   0  0  0  0  0  0  0  0  0  0  0  0
  1  2  2  3  0  0  0
  1 11  1  0  0  0  0
  1 22  1  0  0  0  0
  2  3  1  0  0  0  0
  2 23  1  0  0  0  0
  3  4  1  0  0  0  0
  3  5  2  0  0  0  0
  4 16  1  0  0  0  0
  4 24  1  0  0  0  0
  6  7  1  0  0  0  0
  6 14  1  0  0  0  0
  6 25  1  0  0  0  0
  6 26  1  0  0  0  0
  7 27  1  0  0  0  0
  7 28  1  0  0  0  0
  7 29  1  0  0  0  0
  8  9  1  0  0  0  0
  8 10  2  0  0  0  0
  8 21  1  0  0  0  0
  9 30  1  0  0  0  0
  9 31  1  0  0  0  0
  9 32  1  0  0  0  0
 11 12  1  0  0  0  0
 11 13  2  0  0  0  0
 12 14  1  0  0  0  0
 13 15  1  0  0  0  0
 13 33  1  0  0  0  0
 14 15  2  0  0  0  0
 15 34  1  0  0  0  0
 16 17  2  0  0  0  0
 16 18  1  0  0  0  0
 17 19  1  0  0  0  0
 17 35  1  0  0  0  0
 18 20  2  0  0  0  0
 18 36  1  0  0  0  0
 19 21  2  0  0  0  0
 19 37  1  0  0  0  0
 20 21  1  0  0  0  0
 20 38  1  0  0  0  0
M  END
>  <Mol_ID>
7491

>  <Formula>
C17H17NO3

>  <MolWeight>
283.32178

>  <Cat>
E1216

>  <Name>
Heclin

>  <Target>
Others

>  <Form>
free base

>  <CAS>
890605-54-6

>  <URL>
https://www.selleckchem.com/products/heclin.html

$$$$
