Hexestrol.cdx
 OpenBabel08302521383D

 42 43  0  0  0  0  0  0  0  0999 V2000
   -2.7345    4.4155   -2.0407 C   0  0  0  0  0  0  0  0  0  0  0  0
   -2.6170    3.2891   -1.2156 C   0  0  0  0  0  0  0  0  0  0  0  0
   -3.2947    3.2238    0.0120 C   0  0  0  0  0  0  0  0  0  0  0  0
   -4.1220    4.3123    0.3560 C   0  0  0  0  0  0  0  0  0  0  0  0
   -4.2750    5.4168   -0.4872 C   0  0  0  0  0  0  0  0  0  0  0  0
   -3.5619    5.4662   -1.6718 C   0  0  0  0  0  0  0  0  0  0  0  0
   -3.6277    6.5483   -2.4993 O   0  0  0  0  0  0  0  0  0  0  0  0
   -3.0790    2.0970    1.0279 C   0  0  1  0  0  0  0  0  0  0  0  0
   -4.0282    0.8249    0.9852 C   0  0  2  0  0  0  0  0  0  0  0  0
   -1.5891    1.6347    1.0841 C   0  0  0  0  0  0  0  0  0  0  0  0
   -0.5976    2.7247    1.4737 C   0  0  0  0  0  0  0  0  0  0  0  0
   -3.7764   -0.1460   -0.1911 C   0  0  0  0  0  0  0  0  0  0  0  0
   -4.2558   -1.5685    0.1119 C   0  0  0  0  0  0  0  0  0  0  0  0
   -5.5230    1.0591    1.2180 C   0  0  0  0  0  0  0  0  0  0  0  0
   -6.1848    0.3473    2.2393 C   0  0  0  0  0  0  0  0  0  0  0  0
   -7.5452    0.5446    2.5031 C   0  0  0  0  0  0  0  0  0  0  0  0
   -8.2573    1.4715    1.7542 C   0  0  0  0  0  0  0  0  0  0  0  0
   -7.6418    2.1504    0.7114 C   0  0  0  0  0  0  0  0  0  0  0  0
   -6.2927    1.9158    0.4219 C   0  0  0  0  0  0  0  0  0  0  0  0
   -9.5681    1.7398    2.0077 O   0  0  0  0  0  0  0  0  0  0  0  0
   -2.1544    4.4830   -2.9577 H   0  0  0  0  0  0  0  0  0  0  0  0
   -1.9481    2.4973   -1.5330 H   0  0  0  0  0  0  0  0  0  0  0  0
   -4.6770    4.2959    1.2968 H   0  0  0  0  0  0  0  0  0  0  0  0
   -4.9395    6.2227   -0.1927 H   0  0  0  0  0  0  0  0  0  0  0  0
   -4.2142    7.2103   -2.0987 H   0  0  0  0  0  0  0  0  0  0  0  0
   -3.2664    2.5570    2.0114 H   0  0  0  0  0  0  0  0  0  0  0  0
   -3.6999    0.2733    1.8810 H   0  0  0  0  0  0  0  0  0  0  0  0
   -1.4941    0.8245    1.8172 H   0  0  0  0  0  0  0  0  0  0  0  0
   -1.2669    1.2162    0.1247 H   0  0  0  0  0  0  0  0  0  0  0  0
   -0.8267    3.1313    2.4590 H   0  0  0  0  0  0  0  0  0  0  0  0
    0.4145    2.2990    1.5064 H   0  0  0  0  0  0  0  0  0  0  0  0
   -0.5772    3.5437    0.7497 H   0  0  0  0  0  0  0  0  0  0  0  0
   -4.2486    0.2140   -1.1104 H   0  0  0  0  0  0  0  0  0  0  0  0
   -2.7055   -0.2277   -0.3946 H   0  0  0  0  0  0  0  0  0  0  0  0
   -5.3472   -1.6379    0.0980 H   0  0  0  0  0  0  0  0  0  0  0  0
   -3.8657   -2.2673   -0.6349 H   0  0  0  0  0  0  0  0  0  0  0  0
   -3.8992   -1.9077    1.0901 H   0  0  0  0  0  0  0  0  0  0  0  0
   -5.6455   -0.3889    2.8319 H   0  0  0  0  0  0  0  0  0  0  0  0
   -8.0238   -0.0308    3.2888 H   0  0  0  0  0  0  0  0  0  0  0  0
   -8.2096    2.8627    0.1190 H   0  0  0  0  0  0  0  0  0  0  0  0
   -5.8585    2.4239   -0.4340 H   0  0  0  0  0  0  0  0  0  0  0  0
   -9.8394    1.2355    2.7916 H   0  0  0  0  0  0  0  0  0  0  0  0
  1  2  2  0  0  0  0
  1 21  1  0  0  0  0
  2  3  1  0  0  0  0
  2 22  1  0  0  0  0
  3  4  2  0  0  0  0
  4  5  1  0  0  0  0
  4 23  1  0  0  0  0
  5  6  2  0  0  0  0
  5 24  1  0  0  0  0
  6  1  1  0  0  0  0
  6  7  1  0  0  0  0
  7 25  1  0  0  0  0
  8  3  1  0  0  0  0
  8 10  1  0  0  0  0
  8 26  1  1  0  0  0
  9 14  1  0  0  0  0
  9 27  1  1  0  0  0
  9 12  1  0  0  0  0
  9  8  1  0  0  0  0
 10 11  1  0  0  0  0
 10 28  1  0  0  0  0
 10 29  1  0  0  0  0
 11 30  1  0  0  0  0
 11 31  1  0  0  0  0
 11 32  1  0  0  0  0
 12 13  1  0  0  0  0
 12 33  1  0  0  0  0
 12 34  1  0  0  0  0
 13 35  1  0  0  0  0
 13 36  1  0  0  0  0
 13 37  1  0  0  0  0
 14 15  2  0  0  0  0
 15 16  1  0  0  0  0
 15 38  1  0  0  0  0
 16 17  2  0  0  0  0
 16 39  1  0  0  0  0
 17 18  1  0  0  0  0
 17 20  1  0  0  0  0
 18 19  2  0  0  0  0
 18 40  1  0  0  0  0
 19 14  1  0  0  0  0
 19 41  1  0  0  0  0
 20 42  1  0  0  0  0
M  END
>  <Mol_ID>
747

>  <Formula>
C18H22O2

>  <MolWeight>
270.36608

>  <Cat>
S2473

>  <Name>
Hexestrol

>  <Synonyms>
Bibenzyl

>  <Target>
Estrogen/progestogen Receptor

>  <Form>
free base

>  <CAS>
84-16-2

>  <URL>
http://selleckchem.com/products/Hexestrol(Bibenzyl).html

$$$$
