HJC0350.cdx
 OpenBabel08302519583D

 38 39  0  0  0  0  0  0  0  0999 V2000
   -0.2710    1.3447    0.1007 C   0  0  0  0  0  0  0  0  0  0  0  0
   -1.3277    0.4115    0.0664 C   0  0  0  0  0  0  0  0  0  0  0  0
   -1.0203   -0.9706   -0.0057 C   0  0  0  0  0  0  0  0  0  0  0  0
    0.3309   -1.3774   -0.1586 C   0  0  0  0  0  0  0  0  0  0  0  0
    1.3510   -0.4066   -0.1094 C   0  0  0  0  0  0  0  0  0  0  0  0
    1.0637    0.9490    0.0314 C   0  0  0  0  0  0  0  0  0  0  0  0
    2.1573    1.9745    0.0694 C   0  0  0  0  0  0  0  0  0  0  0  0
   -2.7052    1.0189    0.0484 C   0  0  0  0  0  0  0  0  0  0  0  0
    0.7807   -2.7975   -0.3863 C   0  0  0  0  0  0  0  0  0  0  0  0
   -2.3379   -2.1888    0.0314 S   0  0  0  0  0  0  0  0  0  0  0  0
   -2.8528   -1.9742    2.7483 C   0  0  0  0  0  0  0  0  0  0  0  0
   -3.9698   -1.7457    3.5379 C   0  0  0  0  0  0  0  0  0  0  0  0
   -5.0886   -1.5048    2.6924 C   0  0  0  0  0  0  0  0  0  0  0  0
   -4.6217   -1.5984    1.3957 C   0  0  0  0  0  0  0  0  0  0  0  0
   -3.2741   -1.8702    1.4368 N   0  0  0  0  0  0  0  0  0  0  0  0
   -3.2012   -1.9382   -1.1101 O   0  0  0  0  0  0  0  0  0  0  0  0
   -1.7980   -3.5134    0.2898 O   0  0  0  0  0  0  0  0  0  0  0  0
   -6.4863   -1.2297    3.1147 C   0  0  0  0  0  0  0  0  0  0  0  0
   -1.4640   -2.2848    3.1743 C   0  0  0  0  0  0  0  0  0  0  0  0
   -0.5003    2.4093    0.1646 H   0  0  0  0  0  0  0  0  0  0  0  0
    2.3919   -0.7169   -0.1994 H   0  0  0  0  0  0  0  0  0  0  0  0
    2.0597    2.6622   -0.7767 H   0  0  0  0  0  0  0  0  0  0  0  0
    2.1080    2.5422    1.0039 H   0  0  0  0  0  0  0  0  0  0  0  0
    3.1469    1.5096    0.0120 H   0  0  0  0  0  0  0  0  0  0  0  0
   -2.8834    1.5700    0.9770 H   0  0  0  0  0  0  0  0  0  0  0  0
   -2.7845    1.7139   -0.7959 H   0  0  0  0  0  0  0  0  0  0  0  0
   -3.5124    0.3073   -0.0830 H   0  0  0  0  0  0  0  0  0  0  0  0
    0.7599   -3.3625    0.5494 H   0  0  0  0  0  0  0  0  0  0  0  0
    0.1760   -3.2870   -1.1549 H   0  0  0  0  0  0  0  0  0  0  0  0
    1.8100   -2.8279   -0.7636 H   0  0  0  0  0  0  0  0  0  0  0  0
   -3.9818   -1.7685    4.6219 H   0  0  0  0  0  0  0  0  0  0  0  0
   -5.1421   -1.5003    0.4503 H   0  0  0  0  0  0  0  0  0  0  0  0
   -6.7671   -0.2027    2.8602 H   0  0  0  0  0  0  0  0  0  0  0  0
   -7.1806   -1.9124    2.6140 H   0  0  0  0  0  0  0  0  0  0  0  0
   -6.6074   -1.3583    4.1951 H   0  0  0  0  0  0  0  0  0  0  0  0
   -1.0623   -3.1621    2.6626 H   0  0  0  0  0  0  0  0  0  0  0  0
   -0.8064   -1.4302    2.9919 H   0  0  0  0  0  0  0  0  0  0  0  0
   -1.4346   -2.5019    4.2480 H   0  0  0  0  0  0  0  0  0  0  0  0
  1  2  2  0  0  0  0
  1 20  1  0  0  0  0
  2  3  1  0  0  0  0
  2  8  1  0  0  0  0
  3  4  2  0  0  0  0
  3 10  1  0  0  0  0
  4  5  1  0  0  0  0
  4  9  1  0  0  0  0
  5  6  2  0  0  0  0
  5 21  1  0  0  0  0
  6  1  1  0  0  0  0
  6  7  1  0  0  0  0
  7 22  1  0  0  0  0
  7 23  1  0  0  0  0
  7 24  1  0  0  0  0
  8 25  1  0  0  0  0
  8 26  1  0  0  0  0
  8 27  1  0  0  0  0
  9 28  1  0  0  0  0
  9 29  1  0  0  0  0
  9 30  1  0  0  0  0
 10 16  2  0  0  0  0
 10 17  2  0  0  0  0
 10 15  1  0  0  0  0
 11 12  2  0  0  0  0
 11 19  1  0  0  0  0
 12 13  1  0  0  0  0
 12 31  1  0  0  0  0
 13 14  2  0  0  0  0
 13 18  1  0  0  0  0
 14 15  1  0  0  0  0
 14 32  1  0  0  0  0
 15 11  1  0  0  0  0
 18 33  1  0  0  0  0
 18 34  1  0  0  0  0
 18 35  1  0  0  0  0
 19 36  1  0  0  0  0
 19 37  1  0  0  0  0
 19 38  1  0  0  0  0
M  END
>  <Mol_ID>
2443

>  <Formula>
C15H19NO2S

>  <MolWeight>
277.38186

>  <Cat>
S7500

>  <Name>
HJC0350

>  <Synonyms>
N/A

>  <Target>
cAMP

>  <Form>
free base

>  <CAS>
885434-70-8

>  <URL>
http://selleckchem.com/products/hjc0350.html

$$$$
