HMN-176
 OpenBabel08302520383D

 45 47  0  0  0  0  0  0  0  0999 V2000
    0.9463    0.2670    0.8795 S   0  0  0  0  0  0  0  0  0  0  0  0
    0.3452   -0.9159    0.3089 O   0  0  0  0  0  0  0  0  0  0  0  0
    0.5463    0.7219    2.2005 O   0  0  0  0  0  0  0  0  0  0  0  0
    6.8407   -0.3143    0.6485 O   0  0  0  0  0  0  0  0  0  0  0  0
    4.9880   -2.8751   -5.7620 O   0  5  0  0  0  0  0  0  0  0  0  0
    0.5942    1.5466   -0.1895 N   0  0  0  0  0  0  0  0  0  0  0  0
    4.7171   -1.8334   -5.0926 N   0  3  0  0  0  0  0  0  0  0  0  0
    2.7045    0.0496    0.8825 C   0  0  0  0  0  0  0  0  0  0  0  0
    1.4083    2.7393   -0.1629 C   0  0  0  0  0  0  0  0  0  0  0  0
    2.4333    2.9138   -1.1202 C   0  0  0  0  0  0  0  0  0  0  0  0
    3.4739    0.6301    1.8941 C   0  0  0  0  0  0  0  0  0  0  0  0
    3.3104   -0.7571   -0.0821 C   0  0  0  0  0  0  0  0  0  0  0  0
    2.6591    1.8828   -2.1528 C   0  0  0  0  0  0  0  0  0  0  0  0
    1.1549    3.7356    0.7855 C   0  0  0  0  0  0  0  0  0  0  0  0
    3.1806    4.1037   -1.0996 C   0  0  0  0  0  0  0  0  0  0  0  0
    5.4906   -0.1963    0.8352 C   0  0  0  0  0  0  0  0  0  0  0  0
    4.8673    0.5223    1.8569 C   0  0  0  0  0  0  0  0  0  0  0  0
    4.7037   -0.8717   -0.1022 C   0  0  0  0  0  0  0  0  0  0  0  0
    4.1029    0.4640   -3.5854 C   0  0  0  0  0  0  0  0  0  0  0  0
    3.8440    1.6320   -2.7314 C   0  0  0  0  0  0  0  0  0  0  0  0
    1.9161    4.9091    0.7919 C   0  0  0  0  0  0  0  0  0  0  0  0
    2.9293    5.0896   -0.1449 C   0  0  0  0  0  0  0  0  0  0  0  0
    3.1213   -0.1628   -4.3555 C   0  0  0  0  0  0  0  0  0  0  0  0
    5.4011   -0.0573   -3.5973 C   0  0  0  0  0  0  0  0  0  0  0  0
    3.4361   -1.3038   -5.0924 C   0  0  0  0  0  0  0  0  0  0  0  0
    5.6872   -1.1996   -4.3439 C   0  0  0  0  0  0  0  0  0  0  0  0
    7.6738    0.4406    1.5224 C   0  0  0  0  0  0  0  0  0  0  0  0
   -0.3802    1.7899    0.0031 H   0  0  0  0  0  0  0  0  0  0  0  0
    3.0009    1.1739    2.7084 H   0  0  0  0  0  0  0  0  0  0  0  0
    2.7171   -1.2761   -0.8317 H   0  0  0  0  0  0  0  0  0  0  0  0
    1.8030    1.2460   -2.3568 H   0  0  0  0  0  0  0  0  0  0  0  0
    0.3546    3.6209    1.5152 H   0  0  0  0  0  0  0  0  0  0  0  0
    3.9545    4.2901   -1.8396 H   0  0  0  0  0  0  0  0  0  0  0  0
    5.4352    1.0145    2.6393 H   0  0  0  0  0  0  0  0  0  0  0  0
    5.1828   -1.4800   -0.8669 H   0  0  0  0  0  0  0  0  0  0  0  0
    4.7150    2.2334   -2.4898 H   0  0  0  0  0  0  0  0  0  0  0  0
    1.7069    5.6903    1.5202 H   0  0  0  0  0  0  0  0  0  0  0  0
    3.5161    6.0039   -0.1445 H   0  0  0  0  0  0  0  0  0  0  0  0
    2.1005    0.2110   -4.3881 H   0  0  0  0  0  0  0  0  0  0  0  0
    6.1918    0.3921   -3.0039 H   0  0  0  0  0  0  0  0  0  0  0  0
    2.7425   -1.8629   -5.6983 H   0  0  0  0  0  0  0  0  0  0  0  0
    6.6519   -1.6816   -4.3921 H   0  0  0  0  0  0  0  0  0  0  0  0
    7.4730    1.5146    1.4363 H   0  0  0  0  0  0  0  0  0  0  0  0
    7.5635    0.1000    2.5567 H   0  0  0  0  0  0  0  0  0  0  0  0
    8.7135    0.2731    1.2259 H   0  0  0  0  0  0  0  0  0  0  0  0
  1  2  2  0  0  0  0
  1  3  2  0  0  0  0
  1  6  1  0  0  0  0
  1  8  1  0  0  0  0
  4 16  1  0  0  0  0
  4 27  1  0  0  0  0
  5  7  1  0  0  0  0
  6  9  1  0  0  0  0
  6 28  1  0  0  0  0
  7 25  2  0  0  0  0
  7 26  1  0  0  0  0
  8 11  2  0  0  0  0
  8 12  1  0  0  0  0
  9 10  1  0  0  0  0
  9 14  2  0  0  0  0
 10 15  2  0  0  0  0
 11 17  1  0  0  0  0
 11 29  1  0  0  0  0
 12 18  2  0  0  0  0
 12 30  1  0  0  0  0
 13 20  2  0  0  0  0
 13 10  1  0  0  0  0
 13 31  1  0  0  0  0
 14 21  1  0  0  0  0
 14 32  1  0  0  0  0
 15 22  1  0  0  0  0
 15 33  1  0  0  0  0
 16 17  2  0  0  0  0
 16 18  1  0  0  0  0
 17 34  1  0  0  0  0
 18 35  1  0  0  0  0
 19 23  2  0  0  0  0
 19 24  1  0  0  0  0
 19 20  1  0  0  0  0
 20 36  1  0  0  0  0
 21 22  2  0  0  0  0
 21 37  1  0  0  0  0
 22 38  1  0  0  0  0
 23 39  1  0  0  0  0
 24 40  1  0  0  0  0
 25 23  1  0  0  0  0
 25 41  1  0  0  0  0
 26 24  2  0  0  0  0
 26 42  1  0  0  0  0
 27 43  1  0  0  0  0
 27 44  1  0  0  0  0
 27 45  1  0  0  0  0
M  CHG  2   5  -1   7   1
M  END
>  <Mol_ID>
3435

>  <Formula>
C20H18N2O4S

>  <MolWeight>
382.43292

>  <Cat>
S5807

>  <Name>
HMN-176

>  <Synonyms>
N/A

>  <Target>
PLK

>  <Form>
Free Base

>  <CAS>
173529-10-7

>  <URL>
http://www.selleckchem.com/products/hmn-176.html

$$$$
