HMPL-504(AZD6094, Volitinib).cdx
 OpenBabel08302519563D

 41 45  0  0  0  0  0  0  0  0999 V2000
   -2.0893   -0.6740   -0.0228 C   0  0  0  0  0  0  0  0  0  0  0  0
   -2.0371    0.7268   -0.0433 C   0  0  0  0  0  0  0  0  0  0  0  0
   -0.8967    1.4699   -0.0375 N   0  0  0  0  0  0  0  0  0  0  0  0
    0.2179    0.6965   -0.0036 C   0  0  0  0  0  0  0  0  0  0  0  0
    0.1491   -0.6911    0.0033 C   0  0  0  0  0  0  0  0  0  0  0  0
   -0.9699   -1.4518   -0.0086 N   0  0  0  0  0  0  0  0  0  0  0  0
    1.5187    1.1015    0.0259 N   0  0  0  0  0  0  0  0  0  0  0  0
    2.2824    0.0129    0.0609 N   0  0  0  0  0  0  0  0  0  0  0  0
    1.4627   -1.0672    0.0263 N   0  0  0  0  0  0  0  0  0  0  0  0
   -3.3476   -1.3986   -0.0164 C   0  0  0  0  0  0  0  0  0  0  0  0
    1.9943   -2.4276    0.0179 C   0  0  1  0  0  0  0  0  0  0  0  0
    3.3243   -2.5161   -0.7482 C   0  0  0  0  0  0  0  0  0  0  0  0
    2.0473   -2.9805    1.4352 C   0  0  0  0  0  0  0  0  0  0  0  0
    0.8705   -3.7142    1.9283 C   0  0  0  0  0  0  0  0  0  0  0  0
    0.7968   -4.1917    3.1863 C   0  0  0  0  0  0  0  0  0  0  0  0
    1.8836   -3.9969    4.0804 C   0  0  0  0  0  0  0  0  0  0  0  0
    2.9976   -3.3328    3.5819 N   0  0  0  0  0  0  0  0  0  0  0  0
    3.0883   -2.8369    2.2836 C   0  0  0  0  0  0  0  0  0  0  0  0
    2.0462   -4.3275    5.3443 N   0  0  0  0  0  0  0  0  0  0  0  0
    3.2934   -3.8658    5.6810 C   0  0  0  0  0  0  0  0  0  0  0  0
    3.9044   -3.2610    4.6072 C   0  0  0  0  0  0  0  0  0  0  0  0
   -4.6158   -0.8511   -0.0324 C   0  0  0  0  0  0  0  0  0  0  0  0
   -5.4900   -1.9021   -0.0229 N   0  0  0  0  0  0  0  0  0  0  0  0
   -4.8848   -3.0999    0.0065 N   0  0  0  0  0  0  0  0  0  0  0  0
   -3.5832   -2.7924    0.0110 C   0  0  0  0  0  0  0  0  0  0  0  0
   -6.9312   -1.8292   -0.0408 C   0  0  0  0  0  0  0  0  0  0  0  0
   -2.9414    1.3260   -0.0664 H   0  0  0  0  0  0  0  0  0  0  0  0
    1.2786   -3.0204   -0.5690 H   0  0  0  0  0  0  0  0  0  0  0  0
    4.1159   -1.9170   -0.2837 H   0  0  0  0  0  0  0  0  0  0  0  0
    3.6757   -3.5510   -0.8074 H   0  0  0  0  0  0  0  0  0  0  0  0
    3.2003   -2.1438   -1.7722 H   0  0  0  0  0  0  0  0  0  0  0  0
    0.0306   -3.8652    1.2540 H   0  0  0  0  0  0  0  0  0  0  0  0
   -0.0783   -4.7223    3.5443 H   0  0  0  0  0  0  0  0  0  0  0  0
    4.0028   -2.3135    2.0332 H   0  0  0  0  0  0  0  0  0  0  0  0
    3.6858   -3.9914    6.6820 H   0  0  0  0  0  0  0  0  0  0  0  0
    4.8684   -2.7875    4.4929 H   0  0  0  0  0  0  0  0  0  0  0  0
   -4.9771    0.1674   -0.0507 H   0  0  0  0  0  0  0  0  0  0  0  0
   -2.8561   -3.5952    0.0352 H   0  0  0  0  0  0  0  0  0  0  0  0
   -7.2914   -2.3607   -0.9248 H   0  0  0  0  0  0  0  0  0  0  0  0
   -7.3122   -2.2923    0.8726 H   0  0  0  0  0  0  0  0  0  0  0  0
   -7.2401   -0.7820   -0.0844 H   0  0  0  0  0  0  0  0  0  0  0  0
  1  2  2  0  0  0  0
  1 10  1  0  0  0  0
  2  3  1  0  0  0  0
  2 27  1  0  0  0  0
  3  4  2  0  0  0  0
  4  5  1  0  0  0  0
  4  7  1  0  0  0  0
  5  6  2  0  0  0  0
  6  1  1  0  0  0  0
  7  8  2  0  0  0  0
  8  9  1  0  0  0  0
  9  5  1  0  0  0  0
  9 11  1  0  0  0  0
 10 22  2  0  0  0  0
 11 12  1  0  0  0  0
 11 13  1  0  0  0  0
 11 28  1  6  0  0  0
 12 29  1  0  0  0  0
 12 30  1  0  0  0  0
 12 31  1  0  0  0  0
 13 14  1  0  0  0  0
 14 15  2  0  0  0  0
 14 32  1  0  0  0  0
 15 16  1  0  0  0  0
 15 33  1  0  0  0  0
 16 17  1  0  0  0  0
 16 19  2  0  0  0  0
 17 18  1  0  0  0  0
 18 13  2  0  0  0  0
 18 34  1  0  0  0  0
 19 20  1  0  0  0  0
 20 21  2  0  0  0  0
 20 35  1  0  0  0  0
 21 17  1  0  0  0  0
 21 36  1  0  0  0  0
 22 23  1  0  0  0  0
 22 37  1  0  0  0  0
 23 24  1  0  0  0  0
 23 26  1  0  0  0  0
 24 25  2  0  0  0  0
 25 10  1  0  0  0  0
 25 38  1  0  0  0  0
 26 39  1  0  0  0  0
 26 40  1  0  0  0  0
 26 41  1  0  0  0  0
M  END
>  <Mol_ID>
2237

>  <Formula>
C17H15N9

>  <MolWeight>
345.3613

>  <Cat>
S7674

>  <Name>
Savolitinib (AZD6094)

>  <Synonyms>
HMPL-504, Volitinib

>  <Target>
c-Met

>  <Form>
free base

>  <CAS>
1313725-88-0

>  <URL>
http://selleckchem.com/products/hmpl-504-azd6094-volitinib.html

$$$$
