HOIPIN-1
 OpenBabel08302521313D

 34 35  0  0  0  0  0  0  0  0999 V2000
   -0.5087   -4.8453    0.3860 O   0  0  0  0  0  0  0  0  0  0  0  0
    0.6100   -2.3552    0.1570 O   0  0  0  0  0  0  0  0  0  0  0  0
    4.0297   -1.4771    3.9617 O   0  5  0  0  0  0  0  0  0  0  0  0
    4.9273    0.3268    4.9695 O   0  0  0  0  0  0  0  0  0  0  0  0
    3.8112    0.1434    1.4824 C   0  0  0  0  0  0  0  0  0  0  0  0
    1.8671   -4.3785    0.3506 C   0  0  0  0  0  0  0  0  0  0  0  0
    4.6394    0.3892    2.6046 C   0  0  0  0  0  0  0  0  0  0  0  0
    0.7900   -5.2971    0.3498 C   0  0  0  0  0  0  0  0  0  0  0  0
    2.6629   -0.7773    1.3857 C   0  0  0  0  0  0  0  0  0  0  0  0
    1.6666   -2.8859    0.4914 C   0  0  0  0  0  0  0  0  0  0  0  0
    4.0617    0.8601    0.2905 C   0  0  0  0  0  0  0  0  0  0  0  0
    2.8232   -2.0386    0.9504 C   0  0  0  0  0  0  0  0  0  0  0  0
    3.1683   -4.8958    0.1942 C   0  0  0  0  0  0  0  0  0  0  0  0
    5.6669    1.3581    2.4767 C   0  0  0  0  0  0  0  0  0  0  0  0
    1.0591   -6.6796    0.3579 C   0  0  0  0  0  0  0  0  0  0  0  0
    5.0925    1.7933    0.1861 C   0  0  0  0  0  0  0  0  0  0  0  0
    3.4124   -6.2710    0.1495 C   0  0  0  0  0  0  0  0  0  0  0  0
    5.8952    2.0482    1.2868 C   0  0  0  0  0  0  0  0  0  0  0  0
    2.3602   -7.1638    0.2637 C   0  0  0  0  0  0  0  0  0  0  0  0
    4.5032   -0.3065    3.9455 C   0  0  0  0  0  0  0  0  0  0  0  0
   -1.4642   -5.6783   -0.2745 C   0  0  0  0  0  0  0  0  0  0  0  0
    1.6778   -0.3382    1.5147 H   0  0  0  0  0  0  0  0  0  0  0  0
    3.4317    0.6803   -0.5803 H   0  0  0  0  0  0  0  0  0  0  0  0
    3.8316   -2.4191    0.8744 H   0  0  0  0  0  0  0  0  0  0  0  0
    4.0319   -4.2474    0.0958 H   0  0  0  0  0  0  0  0  0  0  0  0
    6.2987    1.5700    3.3422 H   0  0  0  0  0  0  0  0  0  0  0  0
    0.2633   -7.4096    0.4620 H   0  0  0  0  0  0  0  0  0  0  0  0
    5.2573    2.3181   -0.7491 H   0  0  0  0  0  0  0  0  0  0  0  0
    4.4311   -6.6350    0.0494 H   0  0  0  0  0  0  0  0  0  0  0  0
    6.6963    2.7766    1.2285 H   0  0  0  0  0  0  0  0  0  0  0  0
    2.5456   -8.2338    0.2779 H   0  0  0  0  0  0  0  0  0  0  0  0
   -2.4054   -5.1282   -0.3661 H   0  0  0  0  0  0  0  0  0  0  0  0
   -1.1356   -5.9496   -1.2859 H   0  0  0  0  0  0  0  0  0  0  0  0
   -1.6795   -6.5783    0.3125 H   0  0  0  0  0  0  0  0  0  0  0  0
  1  8  1  0  0  0  0
  1 21  1  0  0  0  0
  2 10  2  0  0  0  0
  3 20  1  0  0  0  0
  4 20  2  0  0  0  0
  5  7  2  0  0  0  0
  5  9  1  0  0  0  0
  5 11  1  0  0  0  0
  6  8  2  0  0  0  0
  6 10  1  0  0  0  0
  6 13  1  0  0  0  0
  7 14  1  0  0  0  0
  7 20  1  0  0  0  0
  8 15  1  0  0  0  0
  9 12  2  0  0  0  0
  9 22  1  0  0  0  0
 10 12  1  0  0  0  0
 11 16  2  0  0  0  0
 11 23  1  0  0  0  0
 12 24  1  0  0  0  0
 13 17  2  0  0  0  0
 13 25  1  0  0  0  0
 14 18  2  0  0  0  0
 14 26  1  0  0  0  0
 15 19  2  0  0  0  0
 15 27  1  0  0  0  0
 16 18  1  0  0  0  0
 16 28  1  0  0  0  0
 17 19  1  0  0  0  0
 17 29  1  0  0  0  0
 18 30  1  0  0  0  0
 19 31  1  0  0  0  0
 21 32  1  0  0  0  0
 21 33  1  0  0  0  0
 21 34  1  0  0  0  0
M  CHG  1   3  -1
M  END
>  <Mol_ID>
6016

>  <Formula>
C17H13NaO4

>  <MolWeight>
304.27249

>  <Cat>
S6396

>  <Name>
HOIPIN-1

>  <Synonyms>
JTP-0819958, HOIP inhibitor-1

>  <Target>
Others

>  <Form>
Free Base

>  <URL>
http://www.selleckchem.com/products/hoipin-1.html

$$$$
