Hordenine.cdx
 OpenBabel08302521263D

 27 27  0  0  0  0  0  0  0  0999 V2000
    0.1442    0.2018   -1.7461 C   0  0  0  0  0  0  0  0  0  0  0  0
    0.8307   -0.6725   -0.9110 C   0  0  0  0  0  0  0  0  0  0  0  0
    0.2177   -1.2139    0.2122 C   0  0  0  0  0  0  0  0  0  0  0  0
   -1.1144   -0.8998    0.4893 C   0  0  0  0  0  0  0  0  0  0  0  0
   -1.8345   -0.0347   -0.3470 C   0  0  0  0  0  0  0  0  0  0  0  0
   -1.1861    0.5190   -1.4634 C   0  0  0  0  0  0  0  0  0  0  0  0
   -5.9272   -0.2368    1.3106 C   0  0  0  0  0  0  0  0  0  0  0  0
   -5.1324    0.9886    1.4235 N   0  0  0  0  0  0  0  0  0  0  0  0
   -3.6836    0.7349    1.2713 C   0  0  0  0  0  0  0  0  0  0  0  0
   -3.3119    0.2092   -0.1298 C   0  0  0  0  0  0  0  0  0  0  0  0
    2.1160   -1.0451   -1.1746 O   0  0  0  0  0  0  0  0  0  0  0  0
   -5.4138    1.6267    2.7137 C   0  0  0  0  0  0  0  0  0  0  0  0
    0.6160    0.6300   -2.6258 H   0  0  0  0  0  0  0  0  0  0  0  0
    0.7642   -1.8984    0.8534 H   0  0  0  0  0  0  0  0  0  0  0  0
   -1.5922   -1.3636    1.3487 H   0  0  0  0  0  0  0  0  0  0  0  0
   -1.7234    1.1859   -2.1348 H   0  0  0  0  0  0  0  0  0  0  0  0
   -5.6140   -0.9984    2.0351 H   0  0  0  0  0  0  0  0  0  0  0  0
   -6.9894   -0.0239    1.4767 H   0  0  0  0  0  0  0  0  0  0  0  0
   -5.8627   -0.6670    0.3070 H   0  0  0  0  0  0  0  0  0  0  0  0
   -3.3374    0.0479    2.0524 H   0  0  0  0  0  0  0  0  0  0  0  0
   -3.1440    1.6789    1.4195 H   0  0  0  0  0  0  0  0  0  0  0  0
   -3.6785    0.9236   -0.8785 H   0  0  0  0  0  0  0  0  0  0  0  0
   -3.8115   -0.7420   -0.3397 H   0  0  0  0  0  0  0  0  0  0  0  0
    2.3708   -0.6783   -2.0368 H   0  0  0  0  0  0  0  0  0  0  0  0
   -5.3967    0.9114    3.5441 H   0  0  0  0  0  0  0  0  0  0  0  0
   -4.6979    2.4246    2.9384 H   0  0  0  0  0  0  0  0  0  0  0  0
   -6.4046    2.0950    2.6834 H   0  0  0  0  0  0  0  0  0  0  0  0
  1  2  2  0  0  0  0
  1 13  1  0  0  0  0
  2  3  1  0  0  0  0
  2 11  1  0  0  0  0
  3  4  2  0  0  0  0
  3 14  1  0  0  0  0
  4  5  1  0  0  0  0
  4 15  1  0  0  0  0
  5  6  2  0  0  0  0
  6  1  1  0  0  0  0
  6 16  1  0  0  0  0
  7  8  1  0  0  0  0
  7 17  1  0  0  0  0
  7 18  1  0  0  0  0
  7 19  1  0  0  0  0
  8  9  1  0  0  0  0
  8 12  1  0  0  0  0
  9 10  1  0  0  0  0
  9 20  1  0  0  0  0
  9 21  1  0  0  0  0
 10  5  1  0  0  0  0
 10 22  1  0  0  0  0
 10 23  1  0  0  0  0
 11 24  1  0  0  0  0
 12 25  1  0  0  0  0
 12 26  1  0  0  0  0
 12 27  1  0  0  0  0
M  END
>  <Mol_ID>
503

>  <Formula>
C10H15NO

>  <MolWeight>
165.2322

>  <Cat>
S2385

>  <Name>
Hordenine

>  <Synonyms>
N/A

>  <Target>
Antibiotics,Bacterial

>  <Form>
free base

>  <CAS>
539-15-1

>  <URL>
http://selleckchem.com/products/Hordenine.html

$$$$
