Hydroxy-¦Á-sanshool
 OpenBabel08302521453D

 44 43  0  0  0  0  0  0  0  0999 V2000
    1.0236   -0.0878    0.1187 C   0  0  0  0  0  0  0  0  0  0  0  0
    0.2500    1.1783    0.0789 C   0  0  0  0  0  0  0  0  0  0  0  0
    2.3943    0.0903    0.0617 N   0  0  0  0  0  0  0  0  0  0  0  0
    0.4836   -1.1739    0.1845 O   0  0  0  0  0  0  0  0  0  0  0  0
   -1.1002    1.2461    0.1603 C   0  0  0  0  0  0  0  0  0  0  0  0
    3.3211   -1.0349    0.1391 C   0  0  0  0  0  0  0  0  0  0  0  0
   -1.8528    2.5501    0.0786 C   0  0  0  0  0  0  0  0  0  0  0  0
    4.6772   -0.6647    0.7964 C   0  0  0  0  0  0  0  0  0  0  0  0
   -2.0551    3.1786    1.4624 C   0  0  0  0  0  0  0  0  0  0  0  0
    4.4908   -0.1755    2.2343 C   0  0  0  0  0  0  0  0  0  0  0  0
    5.6055   -1.8832    0.7731 C   0  0  0  0  0  0  0  0  0  0  0  0
    5.2962    0.3912    0.0418 O   0  0  0  0  0  0  0  0  0  0  0  0
   -2.8210    4.4784    1.3927 C   0  0  0  0  0  0  0  0  0  0  0  0
   -3.1536    5.2780    2.4212 C   0  0  0  0  0  0  0  0  0  0  0  0
   -2.8180    5.0197    3.8001 C   0  0  0  0  0  0  0  0  0  0  0  0
   -3.1575    5.8229    4.8215 C   0  0  0  0  0  0  0  0  0  0  0  0
   -2.7525    5.5013    6.1688 C   0  0  0  0  0  0  0  0  0  0  0  0
   -3.0539    6.2605    7.2324 C   0  0  0  0  0  0  0  0  0  0  0  0
   -2.6181    5.9279    8.6206 C   0  0  0  0  0  0  0  0  0  0  0  0
    0.8384    2.0807    0.0023 H   0  0  0  0  0  0  0  0  0  0  0  0
    2.8034    1.0022   -0.0852 H   0  0  0  0  0  0  0  0  0  0  0  0
   -1.7069    0.3499    0.2710 H   0  0  0  0  0  0  0  0  0  0  0  0
    2.8383   -1.8412    0.6991 H   0  0  0  0  0  0  0  0  0  0  0  0
    3.4939   -1.3931   -0.8863 H   0  0  0  0  0  0  0  0  0  0  0  0
   -1.3175    3.2382   -0.5906 H   0  0  0  0  0  0  0  0  0  0  0  0
   -2.8319    2.3699   -0.3916 H   0  0  0  0  0  0  0  0  0  0  0  0
   -2.5824    2.4528    2.0932 H   0  0  0  0  0  0  0  0  0  0  0  0
   -1.0777    3.3649    1.9236 H   0  0  0  0  0  0  0  0  0  0  0  0
    4.0061   -0.9348    2.8560 H   0  0  0  0  0  0  0  0  0  0  0  0
    5.4567    0.0765    2.6863 H   0  0  0  0  0  0  0  0  0  0  0  0
    3.8922    0.7411    2.2695 H   0  0  0  0  0  0  0  0  0  0  0  0
    5.7854   -2.2176   -0.2549 H   0  0  0  0  0  0  0  0  0  0  0  0
    6.5864   -1.6384    1.1960 H   0  0  0  0  0  0  0  0  0  0  0  0
    5.1820   -2.7182    1.3409 H   0  0  0  0  0  0  0  0  0  0  0  0
    6.1673    0.5682    0.4411 H   0  0  0  0  0  0  0  0  0  0  0  0
   -3.1159    4.8133    0.3976 H   0  0  0  0  0  0  0  0  0  0  0  0
   -3.7059    6.1912    2.2093 H   0  0  0  0  0  0  0  0  0  0  0  0
   -2.2451    4.1224    4.0120 H   0  0  0  0  0  0  0  0  0  0  0  0
   -3.7314    6.7309    4.6565 H   0  0  0  0  0  0  0  0  0  0  0  0
   -2.1634    4.5972    6.3109 H   0  0  0  0  0  0  0  0  0  0  0  0
   -3.6389    7.1680    7.1120 H   0  0  0  0  0  0  0  0  0  0  0  0
   -2.0013    6.7388    9.0188 H   0  0  0  0  0  0  0  0  0  0  0  0
   -3.4930    5.8064    9.2660 H   0  0  0  0  0  0  0  0  0  0  0  0
   -2.0327    5.0031    8.6613 H   0  0  0  0  0  0  0  0  0  0  0  0
  1  2  1  0  0  0  0
  1  3  1  0  0  0  0
  1  4  2  0  0  0  0
  2  5  2  0  0  0  0
  2 20  1  0  0  0  0
  3  6  1  0  0  0  0
  3 21  1  0  0  0  0
  5  7  1  0  0  0  0
  5 22  1  0  0  0  0
  6  8  1  0  0  0  0
  6 23  1  0  0  0  0
  6 24  1  0  0  0  0
  7  9  1  0  0  0  0
  7 25  1  0  0  0  0
  7 26  1  0  0  0  0
  8 10  1  0  0  0  0
  8 11  1  0  0  0  0
  8 12  1  0  0  0  0
  9 13  1  0  0  0  0
  9 27  1  0  0  0  0
  9 28  1  0  0  0  0
 10 29  1  0  0  0  0
 10 30  1  0  0  0  0
 10 31  1  0  0  0  0
 11 32  1  0  0  0  0
 11 33  1  0  0  0  0
 11 34  1  0  0  0  0
 12 35  1  0  0  0  0
 13 14  2  0  0  0  0
 13 36  1  0  0  0  0
 14 15  1  0  0  0  0
 14 37  1  0  0  0  0
 15 16  2  0  0  0  0
 15 38  1  0  0  0  0
 16 17  1  0  0  0  0
 16 39  1  0  0  0  0
 17 18  2  0  0  0  0
 17 40  1  0  0  0  0
 18 19  1  0  0  0  0
 18 41  1  0  0  0  0
 19 42  1  0  0  0  0
 19 43  1  0  0  0  0
 19 44  1  0  0  0  0
M  END
>  <Mol_ID>
9613

>  <Formula>
C16H25NO2

>  <MolWeight>
263.3752

>  <Cat>
E2195

>  <Name>
Hydroxy-¦Á-sanshool

>  <Synonyms>
N/A

>  <Target>
TRP Channel, Potassium Channel

>  <Form>
free base

>  <CAS>
83883-10-7

>  <URL>
https://www.selleckchem.com/products/hydroxy-alpha-sanshool.html

$$$$
