Hydrocortisone sodium succinate
 OpenBabel08302521313D

 66 69  0  0  0  0  0  0  0  0999 V2000
   -7.7033    0.3423   -0.0424 C   0  0  1  0  0  0  0  0  0  0  0  0
   -6.7267   -0.6661    0.5462 C   0  0  2  0  0  0  0  0  0  0  0  0
   -8.6734    0.4749    1.2145 C   0  0  2  0  0  0  0  0  0  0  0  0
   -7.3409    1.7076   -0.5743 C   0  0  0  0  0  0  0  0  0  0  0  0
   -8.1623   -0.4021   -1.4222 C   0  0  0  0  0  0  0  0  0  0  0  0
   -5.3054   -0.5749   -0.2369 C   0  0  1  0  0  0  0  0  0  0  0  0
   -7.9726   -1.7796    0.8696 C   0  0  0  0  0  0  0  0  0  0  0  0
   -9.3767   -0.8223    0.9832 C   0  0  0  0  0  0  0  0  0  0  0  0
   -8.9075    1.8931    1.8033 C   0  0  0  0  0  0  0  0  0  0  0  0
   -8.1349    0.0737    2.5684 O   0  0  0  0  0  0  0  0  0  0  0  0
   -6.1199    1.7005   -1.4271 C   0  0  1  0  0  0  0  0  0  0  0  0
   -5.0299    0.9692   -0.6102 C   0  0  3  0  0  0  0  0  0  0  0  0
   -4.0903   -0.9338    0.6846 C   0  0  0  0  0  0  0  0  0  0  0  0
   -7.6518    2.5441    2.6047 C   0  0  0  0  0  0  0  0  0  0  0  0
  -10.0162    2.4401    1.7444 O   0  0  0  0  0  0  0  0  0  0  0  0
   -6.3865    1.2278   -2.7391 O   0  0  0  0  0  0  0  0  0  0  0  0
   -3.6477    1.4493   -1.1348 C   0  0  3  0  0  0  0  0  0  0  0  0
   -2.6838   -0.6452    0.0820 C   0  0  0  0  0  0  0  0  0  0  0  0
   -7.4946    3.9289    2.8775 O   0  0  0  0  0  0  0  0  0  0  0  0
   -2.4716    0.7141   -0.5378 C   0  0  0  0  0  0  0  0  0  0  0  0
   -3.5519    3.0028   -0.8362 C   0  0  0  0  0  0  0  0  0  0  0  0
   -3.5284    1.2257   -2.6832 C   0  0  0  0  0  0  0  0  0  0  0  0
   -7.1404    4.6747    1.7950 C   0  0  0  0  0  0  0  0  0  0  0  0
   -1.2622    1.2256   -0.8650 C   0  0  0  0  0  0  0  0  0  0  0  0
   -2.2264    3.4900   -0.2853 C   0  0  0  0  0  0  0  0  0  0  0  0
   -6.2433    5.8423    2.1305 C   0  0  0  0  0  0  0  0  0  0  0  0
   -7.5904    4.4917    0.6836 O   0  0  0  0  0  0  0  0  0  0  0  0
   -1.1330    2.7070   -0.9605 C   0  0  0  0  0  0  0  0  0  0  0  0
   -5.4533    5.7801    3.4184 C   0  0  0  0  0  0  0  0  0  0  0  0
   -0.1586    3.2240   -1.4953 O   0  0  0  0  0  0  0  0  0  0  0  0
   -4.6145    4.5514    3.5247 C   0  0  0  0  0  0  0  0  0  0  0  0
   -4.3418    3.9018    2.4937 O   0  0  0  0  0  0  0  0  0  0  0  0
   -4.2243    4.3082    4.7168 O   0  5  0  0  0  0  0  0  0  0  0  0
   -6.3799   -0.4319    1.5634 H   0  0  0  0  0  0  0  0  0  0  0  0
   -8.1970    2.1222   -1.1189 H   0  0  0  0  0  0  0  0  0  0  0  0
   -7.1091    2.3842    0.2289 H   0  0  0  0  0  0  0  0  0  0  0  0
   -7.3000   -0.5761   -2.0766 H   0  0  0  0  0  0  0  0  0  0  0  0
   -8.4983   -1.4407   -1.3437 H   0  0  0  0  0  0  0  0  0  0  0  0
   -8.9381    0.1518   -1.9534 H   0  0  0  0  0  0  0  0  0  0  0  0
   -5.2979   -1.2242   -1.1168 H   0  0  0  0  0  0  0  0  0  0  0  0
   -8.1393   -2.5807    0.1427 H   0  0  0  0  0  0  0  0  0  0  0  0
   -7.8564   -2.2600    1.8483 H   0  0  0  0  0  0  0  0  0  0  0  0
  -10.0716   -1.1333    1.7667 H   0  0  0  0  0  0  0  0  0  0  0  0
   -9.9666   -0.7637    0.0580 H   0  0  0  0  0  0  0  0  0  0  0  0
   -8.9049   -0.0752    3.1543 H   0  0  0  0  0  0  0  0  0  0  0  0
   -5.8705    2.7524   -1.5782 H   0  0  0  0  0  0  0  0  0  0  0  0
   -5.0717    1.4237    0.3945 H   0  0  0  0  0  0  0  0  0  0  0  0
   -4.1678   -0.3460    1.6141 H   0  0  0  0  0  0  0  0  0  0  0  0
   -4.1353   -1.9822    0.9995 H   0  0  0  0  0  0  0  0  0  0  0  0
   -7.6636    2.0851    3.6021 H   0  0  0  0  0  0  0  0  0  0  0  0
   -6.7085    2.1698    2.1624 H   0  0  0  0  0  0  0  0  0  0  0  0
   -5.8287    0.4581   -2.9261 H   0  0  0  0  0  0  0  0  0  0  0  0
   -1.9760   -0.7082    0.9255 H   0  0  0  0  0  0  0  0  0  0  0  0
   -2.4057   -1.4345   -0.6206 H   0  0  0  0  0  0  0  0  0  0  0  0
   -3.7809    3.5706   -1.7480 H   0  0  0  0  0  0  0  0  0  0  0  0
   -4.3138    3.3081   -0.1088 H   0  0  0  0  0  0  0  0  0  0  0  0
   -3.7762    0.1916   -2.9539 H   0  0  0  0  0  0  0  0  0  0  0  0
   -4.1738    1.9024   -3.2521 H   0  0  0  0  0  0  0  0  0  0  0  0
   -2.5235    1.4164   -3.0789 H   0  0  0  0  0  0  0  0  0  0  0  0
   -0.4475    0.6237   -1.2348 H   0  0  0  0  0  0  0  0  0  0  0  0
   -2.1114    4.5649   -0.4581 H   0  0  0  0  0  0  0  0  0  0  0  0
   -2.1667    3.3256    0.7979 H   0  0  0  0  0  0  0  0  0  0  0  0
   -5.5317    5.9248    1.2903 H   0  0  0  0  0  0  0  0  0  0  0  0
   -6.8553    6.7530    2.1095 H   0  0  0  0  0  0  0  0  0  0  0  0
   -4.7905    6.6554    3.4708 H   0  0  0  0  0  0  0  0  0  0  0  0
   -6.1474    5.8668    4.2819 H   0  0  0  0  0  0  0  0  0  0  0  0
  1  2  1  0  0  0  0
  1  3  1  0  0  0  0
  1  4  1  0  0  0  0
  1  5  1  6  0  0  0
  2  6  1  0  0  0  0
  2  7  1  0  0  0  0
  2 34  1  1  0  0  0
  3  8  1  0  0  0  0
  3 10  1  1  0  0  0
  3  9  1  0  0  0  0
  4 11  1  0  0  0  0
  4 35  1  0  0  0  0
  4 36  1  0  0  0  0
  5 37  1  0  0  0  0
  5 38  1  0  0  0  0
  5 39  1  0  0  0  0
  6 12  1  0  0  0  0
  6 13  1  0  0  0  0
  6 40  1  6  0  0  0
  7  8  1  0  0  0  0
  7 41  1  0  0  0  0
  7 42  1  0  0  0  0
  8 43  1  0  0  0  0
  8 44  1  0  0  0  0
  9 14  1  0  0  0  0
  9 15  2  0  0  0  0
 10 45  1  0  0  0  0
 11 16  1  0  0  0  0
 11 46  1  6  0  0  0
 12 11  1  0  0  0  0
 12 17  1  0  0  0  0
 12 47  1  0  0  0  0
 13 18  1  0  0  0  0
 13 48  1  0  0  0  0
 13 49  1  0  0  0  0
 14 19  1  0  0  0  0
 14 50  1  0  0  0  0
 14 51  1  0  0  0  0
 16 52  1  0  0  0  0
 17 20  1  0  0  0  0
 17 21  1  0  0  0  0
 17 22  1  0  0  0  0
 18 20  1  0  0  0  0
 18 53  1  0  0  0  0
 18 54  1  0  0  0  0
 19 23  1  0  0  0  0
 20 24  2  0  0  0  0
 21 25  1  0  0  0  0
 21 55  1  0  0  0  0
 21 56  1  0  0  0  0
 22 57  1  0  0  0  0
 22 58  1  0  0  0  0
 22 59  1  0  0  0  0
 23 26  1  0  0  0  0
 23 27  2  0  0  0  0
 24 28  1  0  0  0  0
 24 60  1  0  0  0  0
 25 28  1  0  0  0  0
 25 61  1  0  0  0  0
 25 62  1  0  0  0  0
 26 29  1  0  0  0  0
 26 63  1  0  0  0  0
 26 64  1  0  0  0  0
 28 30  2  0  0  0  0
 29 31  1  0  0  0  0
 29 65  1  0  0  0  0
 29 66  1  0  0  0  0
 31 32  2  0  0  0  0
 31 33  1  0  0  0  0
M  CHG  1  33  -1
M  END
>  <Mol_ID>
5960

>  <Formula>
C25H33NaO8

>  <MolWeight>
484.51449

>  <Cat>
E0177

>  <Name>
Hydrocortisone sodium succinate

>  <Synonyms>
Hydrocortisone 21-hemisuccinate sodium salt

>  <Target>
Glucocorticoid Receptor,Interleukins

>  <Form>
Sodium succinate

>  <CAS>
125-04-2

>  <URL>
http://www.selleckchem.com/products/hydrocortisone-sodium-succinate.html

$$$$
