Hydrastine
 OpenBabel08302521353D

 49 53  0  0  0  0  0  0  0  0999 V2000
   -0.4756    0.7339   -0.6605 C   0  0  0  0  0  0  0  0  0  0  0  0
    1.0377    6.3419    1.8702 O   0  0  0  0  0  0  0  0  0  0  0  0
   -1.7137    7.9242    2.9324 O   0  0  0  0  0  0  0  0  0  0  0  0
   -0.3827    8.3788    2.8137 C   0  0  0  0  0  0  0  0  0  0  0  0
   -4.4550    7.2114    3.2500 O   0  0  0  0  0  0  0  0  0  0  0  0
   -4.1356    8.5418    3.6306 C   0  0  0  0  0  0  0  0  0  0  0  0
   -0.8063    3.4830    1.1832 C   0  0  2  0  0  0  0  0  0  0  0  0
   -1.8416    4.3862    1.7514 C   0  0  0  0  0  0  0  0  0  0  0  0
    0.4040    4.2223    1.4168 O   0  0  0  0  0  0  0  0  0  0  0  0
   -1.2891    5.6259    2.0818 C   0  0  0  0  0  0  0  0  0  0  0  0
   -3.1852    4.1039    1.9395 C   0  0  0  0  0  0  0  0  0  0  0  0
    0.1580    5.5108    1.7873 C   0  0  0  0  0  0  0  0  0  0  0  0
   -2.0872    6.6625    2.5871 C   0  0  0  0  0  0  0  0  0  0  0  0
   -3.9933    5.1122    2.4492 C   0  0  0  0  0  0  0  0  0  0  0  0
   -3.4681    6.3808    2.7687 C   0  0  0  0  0  0  0  0  0  0  0  0
   -0.9425    3.1159   -0.3396 C   0  0  1  0  0  0  0  0  0  0  0  0
   -0.8943    4.3592   -1.2410 C   0  0  0  0  0  0  0  0  0  0  0  0
    0.0895    2.0802   -0.6356 N   0  0  0  0  0  0  0  0  0  0  0  0
    0.2938    4.7065   -1.9327 C   0  0  0  0  0  0  0  0  0  0  0  0
   -2.0182    5.1978   -1.3525 C   0  0  0  0  0  0  0  0  0  0  0  0
    0.9139    2.3255   -1.8224 C   0  0  0  0  0  0  0  0  0  0  0  0
    0.3802    5.9008   -2.6635 C   0  0  0  0  0  0  0  0  0  0  0  0
    1.4554    3.7557   -1.8675 C   0  0  0  0  0  0  0  0  0  0  0  0
   -1.9019    6.3620   -2.0739 C   0  0  0  0  0  0  0  0  0  0  0  0
   -0.7344    6.7098   -2.7090 C   0  0  0  0  0  0  0  0  0  0  0  0
   -2.8794    7.2941   -2.2344 O   0  0  0  0  0  0  0  0  0  0  0  0
   -0.8341    7.8964   -3.3639 O   0  0  0  0  0  0  0  0  0  0  0  0
   -2.1992    8.2556   -3.0672 C   0  0  0  0  0  0  0  0  0  0  0  0
   -0.9753    0.5059    0.2873 H   0  0  0  0  0  0  0  0  0  0  0  0
   -1.2000    0.6108   -1.4733 H   0  0  0  0  0  0  0  0  0  0  0  0
    0.3133   -0.0158   -0.7865 H   0  0  0  0  0  0  0  0  0  0  0  0
    0.2750    7.8234    3.4869 H   0  0  0  0  0  0  0  0  0  0  0  0
   -0.0626    8.3748    1.7690 H   0  0  0  0  0  0  0  0  0  0  0  0
   -0.3596    9.4216    3.1437 H   0  0  0  0  0  0  0  0  0  0  0  0
   -3.4146    8.5598    4.4540 H   0  0  0  0  0  0  0  0  0  0  0  0
   -3.8011    9.1298    2.7699 H   0  0  0  0  0  0  0  0  0  0  0  0
   -5.0510    9.0124    4.0033 H   0  0  0  0  0  0  0  0  0  0  0  0
   -0.7543    2.5747    1.7962 H   0  0  0  0  0  0  0  0  0  0  0  0
   -3.6064    3.1352    1.6930 H   0  0  0  0  0  0  0  0  0  0  0  0
   -5.0545    4.9246    2.5998 H   0  0  0  0  0  0  0  0  0  0  0  0
   -1.9362    2.6749   -0.5020 H   0  0  0  0  0  0  0  0  0  0  0  0
   -2.9606    4.9653   -0.8652 H   0  0  0  0  0  0  0  0  0  0  0  0
    1.7692    1.6389   -1.8130 H   0  0  0  0  0  0  0  0  0  0  0  0
    0.3420    2.1183   -2.7378 H   0  0  0  0  0  0  0  0  0  0  0  0
    1.2884    6.1860   -3.1824 H   0  0  0  0  0  0  0  0  0  0  0  0
    2.0668    3.9790   -0.9851 H   0  0  0  0  0  0  0  0  0  0  0  0
    2.0886    3.8690   -2.7542 H   0  0  0  0  0  0  0  0  0  0  0  0
   -2.2061    9.2283   -2.5610 H   0  0  0  0  0  0  0  0  0  0  0  0
   -2.7509    8.3454   -4.0099 H   0  0  0  0  0  0  0  0  0  0  0  0
  1 18  1  0  0  0  0
  1 29  1  0  0  0  0
  1 30  1  0  0  0  0
  1 31  1  0  0  0  0
  2 12  2  0  0  0  0
  3  4  1  0  0  0  0
  3 13  1  0  0  0  0
  4 32  1  0  0  0  0
  4 33  1  0  0  0  0
  4 34  1  0  0  0  0
  5  6  1  0  0  0  0
  5 15  1  0  0  0  0
  6 35  1  0  0  0  0
  6 36  1  0  0  0  0
  6 37  1  0  0  0  0
  7  8  1  0  0  0  0
  7  9  1  0  0  0  0
  7 38  1  1  0  0  0
  8 10  2  0  0  0  0
  8 11  1  0  0  0  0
  9 12  1  0  0  0  0
 10 12  1  0  0  0  0
 10 13  1  0  0  0  0
 11 14  2  0  0  0  0
 11 39  1  0  0  0  0
 13 15  2  0  0  0  0
 14 15  1  0  0  0  0
 14 40  1  0  0  0  0
 16 17  1  0  0  0  0
 16 18  1  0  0  0  0
 16  7  1  0  0  0  0
 16 41  1  6  0  0  0
 17 19  2  0  0  0  0
 17 20  1  0  0  0  0
 18 21  1  0  0  0  0
 19 22  1  0  0  0  0
 19 23  1  0  0  0  0
 20 24  2  0  0  0  0
 20 42  1  0  0  0  0
 21 23  1  0  0  0  0
 21 43  1  0  0  0  0
 21 44  1  0  0  0  0
 22 25  2  0  0  0  0
 22 45  1  0  0  0  0
 23 46  1  0  0  0  0
 23 47  1  0  0  0  0
 24 25  1  0  0  0  0
 24 26  1  0  0  0  0
 25 27  1  0  0  0  0
 26 28  1  0  0  0  0
 27 28  1  0  0  0  0
 28 48  1  0  0  0  0
 28 49  1  0  0  0  0
M  END
>  <Mol_ID>
6855

>  <Formula>
C21H21NO6

>  <MolWeight>
383.39454

>  <Cat>
E2484

>  <Name>
Hydrastine

>  <Synonyms>
(-)-¦Â-Hydrastine, (1R,9S)-¦Â-Hydrastine

>  <Target>
PAK

>  <Form>
Free base

>  <CAS>
118-08-1

>  <URL>
https://www.selleckchem.com/products/hydrastine.html

$$$$
