Hydrocortisone hemisuccinate
 OpenBabel08302521303D

 67 70  0  0  0  0  0  0  0  0999 V2000
    2.9459    1.9329   -0.2828 O   0  0  0  0  0  0  0  0  0  0  0  0
   -3.0095    0.6672   -0.9668 O   0  0  0  0  0  0  0  0  0  0  0  0
    1.5732   -0.8030    1.3609 O   0  0  0  0  0  0  0  0  0  0  0  0
    2.8584   -2.0598   -0.7327 O   0  0  0  0  0  0  0  0  0  0  0  0
   -3.8581    6.2689   -2.7001 O   0  0  0  0  0  0  0  0  0  0  0  0
    0.6982   -2.7913   -0.9857 O   0  0  0  0  0  0  0  0  0  0  0  0
    3.6499   -6.0008    2.6031 O   0  0  0  0  0  0  0  0  0  0  0  0
    4.0012   -6.5335    0.4448 O   0  0  0  0  0  0  0  0  0  0  0  0
    0.4534    2.0050   -0.1569 C   0  0  1  0  0  0  0  0  0  0  0  0
   -0.1177    2.7695    1.0655 C   0  0  2  0  0  0  0  0  0  0  0  0
   -1.3196    3.6445    0.7294 C   0  0  1  0  0  0  0  0  0  0  0  0
   -2.4848    2.6647    0.3374 C   0  0  3  0  0  0  0  0  0  0  0  0
    1.8034    1.4298    0.4267 C   0  0  3  0  0  0  0  0  0  0  0  0
   -0.6572    0.9968   -0.5294 C   0  0  0  0  0  0  0  0  0  0  0  0
   -3.8791    3.4040    0.1096 C   0  0  3  0  0  0  0  0  0  0  0  0
   -2.0231    1.6791   -0.7877 C   0  0  3  0  0  0  0  0  0  0  0  0
    1.1023    3.3104    1.7836 C   0  0  0  0  0  0  0  0  0  0  0  0
    1.9148    2.0124    1.8588 C   0  0  0  0  0  0  0  0  0  0  0  0
   -1.6804    4.5630    1.9129 C   0  0  0  0  0  0  0  0  0  0  0  0
    0.7530    2.9014   -1.3885 C   0  0  0  0  0  0  0  0  0  0  0  0
   -3.6771    4.8864    0.4822 C   0  0  0  0  0  0  0  0  0  0  0  0
   -3.0867    5.1474    1.8404 C   0  0  0  0  0  0  0  0  0  0  0  0
   -4.4766    3.2225   -1.3300 C   0  0  0  0  0  0  0  0  0  0  0  0
   -4.9113    2.7630    1.0834 C   0  0  0  0  0  0  0  0  0  0  0  0
    1.9079   -0.1059    0.3979 C   0  0  0  0  0  0  0  0  0  0  0  0
   -5.2012    4.4449   -1.8712 C   0  0  0  0  0  0  0  0  0  0  0  0
   -3.8067    5.9066   -0.3838 C   0  0  0  0  0  0  0  0  0  0  0  0
   -4.2571    5.6032   -1.7519 C   0  0  0  0  0  0  0  0  0  0  0  0
    2.4144   -0.7206   -0.9116 C   0  0  0  0  0  0  0  0  0  0  0  0
    1.8800   -3.0047   -0.7445 C   0  0  0  0  0  0  0  0  0  0  0  0
    2.4617   -4.3466   -0.4353 C   0  0  0  0  0  0  0  0  0  0  0  0
    3.0576   -4.3737    0.9636 C   0  0  0  0  0  0  0  0  0  0  0  0
    3.6045   -5.7426    1.2746 C   0  0  0  0  0  0  0  0  0  0  0  0
    3.0443    2.8825   -0.0917 H   0  0  0  0  0  0  0  0  0  0  0  0
   -2.9979    0.0831   -0.1899 H   0  0  0  0  0  0  0  0  0  0  0  0
    3.3081   -5.2765    3.1639 H   0  0  0  0  0  0  0  0  0  0  0  0
   -0.5191    2.0207    1.7709 H   0  0  0  0  0  0  0  0  0  0  0  0
   -1.0920    4.2914   -0.1274 H   0  0  0  0  0  0  0  0  0  0  0  0
   -2.6359    2.0238    1.2208 H   0  0  0  0  0  0  0  0  0  0  0  0
   -0.7844    0.2493    0.2646 H   0  0  0  0  0  0  0  0  0  0  0  0
   -0.3822    0.4286   -1.4261 H   0  0  0  0  0  0  0  0  0  0  0  0
   -1.9377    2.2150   -1.7315 H   0  0  0  0  0  0  0  0  0  0  0  0
    1.6214    4.0837    1.2082 H   0  0  0  0  0  0  0  0  0  0  0  0
    0.8818    3.7030    2.7798 H   0  0  0  0  0  0  0  0  0  0  0  0
    1.4521    1.3467    2.6006 H   0  0  0  0  0  0  0  0  0  0  0  0
    2.9439    2.1988    2.1782 H   0  0  0  0  0  0  0  0  0  0  0  0
   -1.5694    4.0327    2.8662 H   0  0  0  0  0  0  0  0  0  0  0  0
   -0.9575    5.3901    1.9422 H   0  0  0  0  0  0  0  0  0  0  0  0
   -0.1414    3.2990   -1.8728 H   0  0  0  0  0  0  0  0  0  0  0  0
    1.3674    3.7691   -1.1263 H   0  0  0  0  0  0  0  0  0  0  0  0
    1.2872    2.3268   -2.1554 H   0  0  0  0  0  0  0  0  0  0  0  0
   -3.7156    4.7137    2.6257 H   0  0  0  0  0  0  0  0  0  0  0  0
   -3.0511    6.2195    2.0707 H   0  0  0  0  0  0  0  0  0  0  0  0
   -3.6993    3.0058   -2.0628 H   0  0  0  0  0  0  0  0  0  0  0  0
   -5.1649    2.3675   -1.3601 H   0  0  0  0  0  0  0  0  0  0  0  0
   -4.5861    2.8054    2.1290 H   0  0  0  0  0  0  0  0  0  0  0  0
   -5.0537    1.6995    0.8536 H   0  0  0  0  0  0  0  0  0  0  0  0
   -5.8879    3.2543    1.0199 H   0  0  0  0  0  0  0  0  0  0  0  0
   -5.4677    4.3008   -2.9230 H   0  0  0  0  0  0  0  0  0  0  0  0
   -6.1174    4.6679   -1.3151 H   0  0  0  0  0  0  0  0  0  0  0  0
   -3.5301    6.9297   -0.1666 H   0  0  0  0  0  0  0  0  0  0  0  0
    1.6423   -0.6500   -1.6865 H   0  0  0  0  0  0  0  0  0  0  0  0
    3.2858   -0.1659   -1.2644 H   0  0  0  0  0  0  0  0  0  0  0  0
    1.6652   -5.0978   -0.5221 H   0  0  0  0  0  0  0  0  0  0  0  0
    3.2097   -4.5890   -1.2011 H   0  0  0  0  0  0  0  0  0  0  0  0
    3.8769   -3.6517    1.0660 H   0  0  0  0  0  0  0  0  0  0  0  0
    2.2810   -4.1082    1.6915 H   0  0  0  0  0  0  0  0  0  0  0  0
  1 34  1  0  0  0  0
  2 35  1  0  0  0  0
  3 25  2  0  0  0  0
  4 29  1  0  0  0  0
  4 30  1  0  0  0  0
  5 28  2  0  0  0  0
  6 30  2  0  0  0  0
  7 33  1  0  0  0  0
  7 36  1  0  0  0  0
  8 33  2  0  0  0  0
  9 10  1  0  0  0  0
  9 13  1  0  0  0  0
  9 14  1  0  0  0  0
  9 20  1  6  0  0  0
 10 11  1  0  0  0  0
 10 17  1  0  0  0  0
 10 37  1  1  0  0  0
 11 12  1  0  0  0  0
 11 19  1  0  0  0  0
 11 38  1  6  0  0  0
 12 15  1  0  0  0  0
 12 16  1  0  0  0  0
 12 39  1  0  0  0  0
 13  1  1  0  0  0  0
 13 18  1  0  0  0  0
 13 25  1  0  0  0  0
 14 16  1  0  0  0  0
 14 40  1  0  0  0  0
 14 41  1  0  0  0  0
 15 21  1  0  0  0  0
 15 23  1  0  0  0  0
 15 24  1  0  0  0  0
 16  2  1  0  0  0  0
 16 42  1  0  0  0  0
 17 18  1  0  0  0  0
 17 43  1  0  0  0  0
 17 44  1  0  0  0  0
 18 45  1  0  0  0  0
 18 46  1  0  0  0  0
 19 22  1  0  0  0  0
 19 47  1  0  0  0  0
 19 48  1  0  0  0  0
 20 49  1  0  0  0  0
 20 50  1  0  0  0  0
 20 51  1  0  0  0  0
 21 22  1  0  0  0  0
 21 27  2  0  0  0  0
 22 52  1  0  0  0  0
 22 53  1  0  0  0  0
 23 26  1  0  0  0  0
 23 54  1  0  0  0  0
 23 55  1  0  0  0  0
 24 56  1  0  0  0  0
 24 57  1  0  0  0  0
 24 58  1  0  0  0  0
 25 29  1  0  0  0  0
 26 28  1  0  0  0  0
 26 59  1  0  0  0  0
 26 60  1  0  0  0  0
 27 28  1  0  0  0  0
 27 61  1  0  0  0  0
 29 62  1  0  0  0  0
 29 63  1  0  0  0  0
 30 31  1  0  0  0  0
 31 32  1  0  0  0  0
 31 64  1  0  0  0  0
 31 65  1  0  0  0  0
 32 33  1  0  0  0  0
 32 66  1  0  0  0  0
 32 67  1  0  0  0  0
M  END
>  <Mol_ID>
5582

>  <Formula>
C25H34O8

>  <MolWeight>
462.53266

>  <Cat>
S5972

>  <Name>
Hydrocortisone hemisuccinate

>  <Synonyms>
A-hydrocort, Hydrocortisone 21-hemisuccinate

>  <Target>
Interleukins

>  <Form>
Hemisuccinate

>  <CAS>
2203-97-6

>  <URL>
http://www.selleckchem.com/products/hydrocortisone-hemisuccinate.html

$$$$
