Hydroxyacetone
 OpenBabel08302521363D

 11 10  0  0  0  0  0  0  0  0999 V2000
    1.0078   -0.0495   -0.0254 C   0  0  0  0  0  0  0  0  0  0  0  0
    0.1756   -0.0666    1.2483 C   0  0  0  0  0  0  0  0  0  0  0  0
    0.2655   -0.0972   -1.3358 C   0  0  0  0  0  0  0  0  0  0  0  0
    2.2389   -0.0256    0.0154 O   0  0  0  0  0  0  0  0  0  0  0  0
    0.9083    0.4126    2.3640 O   0  0  0  0  0  0  0  0  0  0  0  0
   -0.7050    0.5682    1.1234 H   0  0  0  0  0  0  0  0  0  0  0  0
   -0.1376   -1.0948    1.4479 H   0  0  0  0  0  0  0  0  0  0  0  0
    0.4956    0.8031   -1.9109 H   0  0  0  0  0  0  0  0  0  0  0  0
    0.5632   -0.9897   -1.8910 H   0  0  0  0  0  0  0  0  0  0  0  0
   -0.8134   -0.1368   -1.1647 H   0  0  0  0  0  0  0  0  0  0  0  0
    1.8358    0.1360    2.2204 H   0  0  0  0  0  0  0  0  0  0  0  0
  1  2  1  0  0  0  0
  1  3  1  0  0  0  0
  1  4  2  0  0  0  0
  2  5  1  0  0  0  0
  2  6  1  0  0  0  0
  2  7  1  0  0  0  0
  3  8  1  0  0  0  0
  3  9  1  0  0  0  0
  3 10  1  0  0  0  0
  5 11  1  0  0  0  0
M  END
>  <Mol_ID>
7259

>  <Formula>
C3H6O2

>  <MolWeight>
74.07854

>  <Cat>
E4273

>  <Name>
Hydroxyacetone

>  <Synonyms>
Acetol

>  <Target>
Others

>  <Form>
Free base

>  <CAS>
116-09-6

>  <URL>
https://www.selleckchem.com/products/hydroxyacetone.html

$$$$
