I-BET151 (GSK1210151A)
 OpenBabel08302520393D

 52 56  0  0  0  0  0  0  0  0999 V2000
   -1.3222   -1.2502    1.7108 C   0  0  0  0  0  0  0  0  0  0  0  0
   -0.7395   -1.8197    2.8558 C   0  0  0  0  0  0  0  0  0  0  0  0
    0.0272   -0.9768    3.6863 C   0  0  0  0  0  0  0  0  0  0  0  0
    0.1749    0.3897    3.4681 C   0  0  0  0  0  0  0  0  0  0  0  0
   -0.3916    0.9564    2.3068 C   0  0  0  0  0  0  0  0  0  0  0  0
   -1.0671    0.0948    1.4217 C   0  0  0  0  0  0  0  0  0  0  0  0
    0.8663    1.0879    4.3913 N   0  0  0  0  0  0  0  0  0  0  0  0
    1.0010    2.4191    4.2264 C   0  0  0  0  0  0  0  0  0  0  0  0
    0.4626    3.0510    3.1409 C   0  0  0  0  0  0  0  0  0  0  0  0
   -0.2284    2.3462    2.1582 C   0  0  0  0  0  0  0  0  0  0  0  0
    0.4552    4.4018    2.8344 N   0  0  0  0  0  0  0  0  0  0  0  0
   -0.2562    4.5937    1.6536 C   0  0  0  0  0  0  0  0  0  0  0  0
   -0.6570    3.3180    1.1994 N   0  0  0  0  0  0  0  0  0  0  0  0
   -0.4704    5.6799    1.1426 O   0  0  0  0  0  0  0  0  0  0  0  0
   -1.4570    3.1216   -0.0031 C   0  0  2  0  0  0  0  0  0  0  0  0
   -0.9819    3.9570   -1.2059 C   0  0  0  0  0  0  0  0  0  0  0  0
   -2.9600    3.2594    0.2308 C   0  0  0  0  0  0  0  0  0  0  0  0
   -3.5465    4.4950    0.5139 C   0  0  0  0  0  0  0  0  0  0  0  0
   -4.9297    4.5774    0.6737 C   0  0  0  0  0  0  0  0  0  0  0  0
   -5.7018    3.4309    0.5543 C   0  0  0  0  0  0  0  0  0  0  0  0
   -5.0482    2.2420    0.2782 C   0  0  0  0  0  0  0  0  0  0  0  0
   -3.7090    2.1290    0.1136 N   0  0  0  0  0  0  0  0  0  0  0  0
   -2.0806   -2.0306    0.8779 O   0  0  0  0  0  0  0  0  0  0  0  0
   -3.0669   -1.4052    0.0525 C   0  0  0  0  0  0  0  0  0  0  0  0
   -0.8543   -3.2356    3.2137 C   0  0  0  0  0  0  0  0  0  0  0  0
   -0.9858   -3.7257    4.5068 C   0  0  0  0  0  0  0  0  0  0  0  0
   -0.9874   -5.0844    4.4786 O   0  0  0  0  0  0  0  0  0  0  0  0
   -0.8564   -5.5259    3.1868 N   0  0  0  0  0  0  0  0  0  0  0  0
   -0.7701   -4.4269    2.4258 C   0  0  0  0  0  0  0  0  0  0  0  0
   -0.5629   -4.6204    0.9714 C   0  0  0  0  0  0  0  0  0  0  0  0
   -1.1000   -3.1644    5.8715 C   0  0  0  0  0  0  0  0  0  0  0  0
    0.5305   -1.3879    4.5609 H   0  0  0  0  0  0  0  0  0  0  0  0
   -1.3790    0.4790    0.4719 H   0  0  0  0  0  0  0  0  0  0  0  0
    1.5456    2.9427    5.0020 H   0  0  0  0  0  0  0  0  0  0  0  0
    0.8510    5.1545    3.3737 H   0  0  0  0  0  0  0  0  0  0  0  0
   -1.2655    2.1106   -0.3494 H   0  0  0  0  0  0  0  0  0  0  0  0
   -1.4636    4.9373   -1.2675 H   0  0  0  0  0  0  0  0  0  0  0  0
    0.1027    4.1084   -1.1837 H   0  0  0  0  0  0  0  0  0  0  0  0
   -1.2177    3.4304   -2.1394 H   0  0  0  0  0  0  0  0  0  0  0  0
   -2.9420    5.3935    0.6031 H   0  0  0  0  0  0  0  0  0  0  0  0
   -5.3955    5.5340    0.8915 H   0  0  0  0  0  0  0  0  0  0  0  0
   -6.7743    3.4620    0.6767 H   0  0  0  0  0  0  0  0  0  0  0  0
   -5.6106    1.3194    0.1708 H   0  0  0  0  0  0  0  0  0  0  0  0
   -4.0103   -1.3282    0.5997 H   0  0  0  0  0  0  0  0  0  0  0  0
   -2.8029   -0.4262   -0.3492 H   0  0  0  0  0  0  0  0  0  0  0  0
   -3.2211   -2.0431   -0.8226 H   0  0  0  0  0  0  0  0  0  0  0  0
    0.3480   -5.2011    0.7936 H   0  0  0  0  0  0  0  0  0  0  0  0
   -1.4074   -5.1699    0.5408 H   0  0  0  0  0  0  0  0  0  0  0  0
   -0.4486   -3.6851    0.4241 H   0  0  0  0  0  0  0  0  0  0  0  0
   -1.9690   -3.5856    6.3866 H   0  0  0  0  0  0  0  0  0  0  0  0
   -0.2077   -3.4171    6.4554 H   0  0  0  0  0  0  0  0  0  0  0  0
   -1.2134   -2.0785    5.8782 H   0  0  0  0  0  0  0  0  0  0  0  0
  1  2  2  0  0  0  0
  1 23  1  0  0  0  0
  2  3  1  0  0  0  0
  2 25  1  0  0  0  0
  3  4  2  0  0  0  0
  3 32  1  0  0  0  0
  4  5  1  0  0  0  0
  4  7  1  0  0  0  0
  5  6  2  0  0  0  0
  6  1  1  0  0  0  0
  6 33  1  0  0  0  0
  7  8  2  0  0  0  0
  8  9  1  0  0  0  0
  8 34  1  0  0  0  0
  9 10  2  0  0  0  0
  9 11  1  0  0  0  0
 10  5  1  0  0  0  0
 11 12  1  0  0  0  0
 11 35  1  0  0  0  0
 12 13  1  0  0  0  0
 12 14  2  0  0  0  0
 13 10  1  0  0  0  0
 15 17  1  0  0  0  0
 15 36  1  6  0  0  0
 15 16  1  0  0  0  0
 15 13  1  0  0  0  0
 16 37  1  0  0  0  0
 16 38  1  0  0  0  0
 16 39  1  0  0  0  0
 17 18  2  0  0  0  0
 18 19  1  0  0  0  0
 18 40  1  0  0  0  0
 19 20  2  0  0  0  0
 19 41  1  0  0  0  0
 20 21  1  0  0  0  0
 20 42  1  0  0  0  0
 21 22  2  0  0  0  0
 21 43  1  0  0  0  0
 22 17  1  0  0  0  0
 23 24  1  0  0  0  0
 24 44  1  0  0  0  0
 24 45  1  0  0  0  0
 24 46  1  0  0  0  0
 25 26  2  0  0  0  0
 26 27  1  0  0  0  0
 26 31  1  0  0  0  0
 27 28  1  0  0  0  0
 28 29  2  0  0  0  0
 29 25  1  0  0  0  0
 29 30  1  0  0  0  0
 30 47  1  0  0  0  0
 30 48  1  0  0  0  0
 30 49  1  0  0  0  0
 31 50  1  0  0  0  0
 31 51  1  0  0  0  0
 31 52  1  0  0  0  0
M  END
>  <Mol_ID>
3694

>  <Formula>
C23H21N5O3

>  <MolWeight>
415.44454

>  <Cat>
S2780

>  <Name>
I-BET151 (GSK1210151A)

>  <Synonyms>
N/A

>  <Target>
Epigenetic Reader Domain

>  <Form>
Free Base

>  <CAS>
1300031-49-5

>  <URL>
http://www.selleck.cn/products/i-bet151-gsk1210151a.html

$$$$
