I-CBP112
 OpenBabel08302521233D

 70 73  0  0  0  0  0  0  0  0999 V2000
   -3.6799    8.3201    3.9901 C   0  0  0  0  0  0  0  0  0  0  0  0
   -2.8142    7.9937    2.9321 C   0  0  0  0  0  0  0  0  0  0  0  0
   -2.7798    6.7197    2.3456 C   0  0  0  0  0  0  0  0  0  0  0  0
   -3.6181    5.7237    2.8649 C   0  0  0  0  0  0  0  0  0  0  0  0
   -4.5080    6.0044    3.9149 C   0  0  0  0  0  0  0  0  0  0  0  0
   -4.5339    7.3042    4.4517 C   0  0  0  0  0  0  0  0  0  0  0  0
   -3.5810    4.4665    2.3105 O   0  0  0  0  0  0  0  0  0  0  0  0
   -3.0134    3.5232    3.2316 C   0  0  0  0  0  0  0  0  0  0  0  0
   -4.0940    2.8908    4.1133 C   0  0  0  0  0  0  0  0  0  0  0  0
   -4.6632    3.8417    5.0754 N   0  0  0  0  0  0  0  0  0  0  0  0
   -5.4209    4.9456    4.4887 C   0  0  0  0  0  0  0  0  0  0  0  0
   -4.3612    3.8947    6.4335 C   0  0  0  0  0  0  0  0  0  0  0  0
   -4.8352    4.7557    7.1757 O   0  0  0  0  0  0  0  0  0  0  0  0
   -3.4029    2.8381    6.9668 C   0  0  0  0  0  0  0  0  0  0  0  0
   -3.1567    2.9612    8.4628 C   0  0  0  0  0  0  0  0  0  0  0  0
   -1.9372    6.3748    1.3082 O   0  0  0  0  0  0  0  0  0  0  0  0
   -1.1312    7.4454    0.7978 C   0  0  0  0  0  0  0  0  0  0  0  0
   -0.2724    7.0035   -0.3985 C   0  0  1  0  0  0  0  0  0  0  0  0
   -1.1133    6.5353   -1.5936 C   0  0  0  0  0  0  0  0  0  0  0  0
   -1.8534    7.6984   -2.2526 C   0  0  0  0  0  0  0  0  0  0  0  0
   -0.9192    8.8737   -2.5561 C   0  0  0  0  0  0  0  0  0  0  0  0
   -0.1600    9.2867   -1.3666 N   0  0  0  0  0  0  0  0  0  0  0  0
    0.6367    8.1687   -0.8374 C   0  0  0  0  0  0  0  0  0  0  0  0
    0.6839   10.4423   -1.6663 C   0  0  0  0  0  0  0  0  0  0  0  0
   -3.6448    9.6684    4.6141 C   0  0  0  0  0  0  0  0  0  0  0  0
   -3.9343    9.8457    5.9713 C   0  0  0  0  0  0  0  0  0  0  0  0
   -3.8806   11.1066    6.5779 C   0  0  0  0  0  0  0  0  0  0  0  0
   -3.5072   12.2416    5.8499 C   0  0  0  0  0  0  0  0  0  0  0  0
   -3.1699   12.0873    4.4984 C   0  0  0  0  0  0  0  0  0  0  0  0
   -3.2783   10.8216    3.8951 C   0  0  0  0  0  0  0  0  0  0  0  0
   -3.4678   13.4988    6.3890 O   0  0  0  0  0  0  0  0  0  0  0  0
   -3.8932   13.6566    7.7356 C   0  0  0  0  0  0  0  0  0  0  0  0
   -2.7643   13.0696    3.6289 O   0  0  0  0  0  0  0  0  0  0  0  0
   -2.0233   14.1502    4.1856 C   0  0  0  0  0  0  0  0  0  0  0  0
   -2.1338    8.7648    2.5887 H   0  0  0  0  0  0  0  0  0  0  0  0
   -5.2349    7.5129    5.2583 H   0  0  0  0  0  0  0  0  0  0  0  0
   -2.2077    3.9697    3.8286 H   0  0  0  0  0  0  0  0  0  0  0  0
   -2.5603    2.7348    2.6202 H   0  0  0  0  0  0  0  0  0  0  0  0
   -4.9244    2.5272    3.4964 H   0  0  0  0  0  0  0  0  0  0  0  0
   -3.6738    2.0259    4.6296 H   0  0  0  0  0  0  0  0  0  0  0  0
   -6.0797    5.3824    5.2487 H   0  0  0  0  0  0  0  0  0  0  0  0
   -6.0816    4.5532    3.7063 H   0  0  0  0  0  0  0  0  0  0  0  0
   -3.8150    1.8441    6.7674 H   0  0  0  0  0  0  0  0  0  0  0  0
   -2.4468    2.9460    6.4432 H   0  0  0  0  0  0  0  0  0  0  0  0
   -4.0795    2.7882    9.0265 H   0  0  0  0  0  0  0  0  0  0  0  0
   -2.4175    2.2212    8.7876 H   0  0  0  0  0  0  0  0  0  0  0  0
   -2.7823    3.9555    8.7260 H   0  0  0  0  0  0  0  0  0  0  0  0
   -1.7798    8.2771    0.4988 H   0  0  0  0  0  0  0  0  0  0  0  0
   -0.4510    7.7805    1.5914 H   0  0  0  0  0  0  0  0  0  0  0  0
    0.3519    6.1603   -0.0763 H   0  0  0  0  0  0  0  0  0  0  0  0
   -1.8239    5.7577   -1.2932 H   0  0  0  0  0  0  0  0  0  0  0  0
   -0.4448    6.0798   -2.3362 H   0  0  0  0  0  0  0  0  0  0  0  0
   -2.6685    8.0346   -1.6005 H   0  0  0  0  0  0  0  0  0  0  0  0
   -2.3211    7.3540   -3.1817 H   0  0  0  0  0  0  0  0  0  0  0  0
   -1.5328    9.7105   -2.9118 H   0  0  0  0  0  0  0  0  0  0  0  0
   -0.2395    8.5989   -3.3730 H   0  0  0  0  0  0  0  0  0  0  0  0
    1.3571    7.8168   -1.5879 H   0  0  0  0  0  0  0  0  0  0  0  0
    1.2204    8.5063    0.0290 H   0  0  0  0  0  0  0  0  0  0  0  0
    1.2077   10.7800   -0.7651 H   0  0  0  0  0  0  0  0  0  0  0  0
    1.4292   10.2244   -2.4391 H   0  0  0  0  0  0  0  0  0  0  0  0
    0.0717   11.2864   -2.0040 H   0  0  0  0  0  0  0  0  0  0  0  0
   -4.2013    8.9967    6.5971 H   0  0  0  0  0  0  0  0  0  0  0  0
   -4.1364   11.1572    7.6286 H   0  0  0  0  0  0  0  0  0  0  0  0
   -3.0513   10.7597    2.8303 H   0  0  0  0  0  0  0  0  0  0  0  0
   -4.9313   13.3329    7.8648 H   0  0  0  0  0  0  0  0  0  0  0  0
   -3.2228   13.1282    8.4213 H   0  0  0  0  0  0  0  0  0  0  0  0
   -3.8449   14.7219    7.9781 H   0  0  0  0  0  0  0  0  0  0  0  0
   -2.6956   14.9042    4.6046 H   0  0  0  0  0  0  0  0  0  0  0  0
   -1.2856   13.8122    4.9217 H   0  0  0  0  0  0  0  0  0  0  0  0
   -1.4736   14.6315    3.3703 H   0  0  0  0  0  0  0  0  0  0  0  0
  1  2  2  0  0  0  0
  1 25  1  0  0  0  0
  2  3  1  0  0  0  0
  2 35  1  0  0  0  0
  3  4  2  0  0  0  0
  3 16  1  0  0  0  0
  4  5  1  0  0  0  0
  4  7  1  0  0  0  0
  5  6  2  0  0  0  0
  6  1  1  0  0  0  0
  6 36  1  0  0  0  0
  7  8  1  0  0  0  0
  8  9  1  0  0  0  0
  8 37  1  0  0  0  0
  8 38  1  0  0  0  0
  9 10  1  0  0  0  0
  9 39  1  0  0  0  0
  9 40  1  0  0  0  0
 10 11  1  0  0  0  0
 10 12  1  0  0  0  0
 11  5  1  0  0  0  0
 11 41  1  0  0  0  0
 11 42  1  0  0  0  0
 12 13  2  0  0  0  0
 12 14  1  0  0  0  0
 14 15  1  0  0  0  0
 14 43  1  0  0  0  0
 14 44  1  0  0  0  0
 15 45  1  0  0  0  0
 15 46  1  0  0  0  0
 15 47  1  0  0  0  0
 16 17  1  0  0  0  0
 17 48  1  0  0  0  0
 17 49  1  0  0  0  0
 18 19  1  0  0  0  0
 18 50  1  1  0  0  0
 18 17  1  0  0  0  0
 19 20  1  0  0  0  0
 19 51  1  0  0  0  0
 19 52  1  0  0  0  0
 20 21  1  0  0  0  0
 20 53  1  0  0  0  0
 20 54  1  0  0  0  0
 21 22  1  0  0  0  0
 21 55  1  0  0  0  0
 21 56  1  0  0  0  0
 22 23  1  0  0  0  0
 22 24  1  0  0  0  0
 23 18  1  0  0  0  0
 23 57  1  0  0  0  0
 23 58  1  0  0  0  0
 24 59  1  0  0  0  0
 24 60  1  0  0  0  0
 24 61  1  0  0  0  0
 25 26  2  0  0  0  0
 26 27  1  0  0  0  0
 26 62  1  0  0  0  0
 27 28  2  0  0  0  0
 27 63  1  0  0  0  0
 28 29  1  0  0  0  0
 28 31  1  0  0  0  0
 29 30  2  0  0  0  0
 29 33  1  0  0  0  0
 30 25  1  0  0  0  0
 30 64  1  0  0  0  0
 31 32  1  0  0  0  0
 32 65  1  0  0  0  0
 32 66  1  0  0  0  0
 32 67  1  0  0  0  0
 33 34  1  0  0  0  0
 34 68  1  0  0  0  0
 34 69  1  0  0  0  0
 34 70  1  0  0  0  0
M  END
>  <Mol_ID>
4798

>  <Formula>
C27H36N2O5

>  <MolWeight>
468.58514

>  <Cat>
S6758

>  <Name>
I-CBP112

>  <Synonyms>
N/A

>  <Target>
Epigenetic Reader Domain

>  <Form>
Free Base

>  <CAS>
1640282-31-0

>  <URL>
http://www.selleck.cn/products/i-cbp112.html

$$$$
