I3MT-3
 OpenBabel08302521313D

 36 38  0  0  0  0  0  0  0  0999 V2000
   -1.2356   -1.4761    0.1465 S   0  0  0  0  0  0  0  0  0  0  0  0
    1.9046   -3.3427   -1.0203 O   0  0  0  0  0  0  0  0  0  0  0  0
   -5.0126   -4.4672    0.5624 O   0  0  0  0  0  0  0  0  0  0  0  0
   -3.1434   -3.1808    0.4195 N   0  0  0  0  0  0  0  0  0  0  0  0
   -1.0154   -4.1362    0.2283 N   0  0  0  0  0  0  0  0  0  0  0  0
    0.4334   -2.9981   -3.5593 C   0  0  0  0  0  0  0  0  0  0  0  0
    0.6491   -2.0377   -2.5266 C   0  0  0  0  0  0  0  0  0  0  0  0
    0.1475   -2.5225   -4.8664 C   0  0  0  0  0  0  0  0  0  0  0  0
    1.0550   -2.4572   -1.1460 C   0  0  0  0  0  0  0  0  0  0  0  0
    0.5727   -0.6631   -2.8060 C   0  0  0  0  0  0  0  0  0  0  0  0
    0.4798   -4.4035   -3.3824 C   0  0  0  0  0  0  0  0  0  0  0  0
    0.0659   -1.1445   -5.1118 C   0  0  0  0  0  0  0  0  0  0  0  0
   -0.0459   -3.4269   -5.9242 C   0  0  0  0  0  0  0  0  0  0  0  0
    0.2743   -0.2209   -4.0913 C   0  0  0  0  0  0  0  0  0  0  0  0
    0.5585   -1.6968    0.0698 C   0  0  0  0  0  0  0  0  0  0  0  0
    0.2891   -5.2908   -4.4455 C   0  0  0  0  0  0  0  0  0  0  0  0
    0.0307   -4.8022   -5.7176 C   0  0  0  0  0  0  0  0  0  0  0  0
   -1.7939   -3.1118    0.2781 C   0  0  0  0  0  0  0  0  0  0  0  0
   -1.6095   -5.3768    0.3018 C   0  0  0  0  0  0  0  0  0  0  0  0
   -2.9336   -5.5602    0.4064 C   0  0  0  0  0  0  0  0  0  0  0  0
   -3.7970   -4.3730    0.4715 C   0  0  0  0  0  0  0  0  0  0  0  0
   -0.6816   -6.5555    0.2390 C   0  0  0  0  0  0  0  0  0  0  0  0
   -3.6884   -2.3354    0.4577 H   0  0  0  0  0  0  0  0  0  0  0  0
    0.7704    0.0837   -2.0429 H   0  0  0  0  0  0  0  0  0  0  0  0
    0.6789   -4.8325   -2.4019 H   0  0  0  0  0  0  0  0  0  0  0  0
   -0.1534   -0.7767   -6.1130 H   0  0  0  0  0  0  0  0  0  0  0  0
   -0.2518   -3.0640   -6.9293 H   0  0  0  0  0  0  0  0  0  0  0  0
    0.2217    0.8439   -4.3076 H   0  0  0  0  0  0  0  0  0  0  0  0
    1.0432   -0.7140    0.0883 H   0  0  0  0  0  0  0  0  0  0  0  0
    0.8900   -2.2211    0.9733 H   0  0  0  0  0  0  0  0  0  0  0  0
    0.3511   -6.3621   -4.2729 H   0  0  0  0  0  0  0  0  0  0  0  0
   -0.1098   -5.4878   -6.5490 H   0  0  0  0  0  0  0  0  0  0  0  0
   -3.4075   -6.5317    0.4453 H   0  0  0  0  0  0  0  0  0  0  0  0
   -0.8322   -7.2139    1.1010 H   0  0  0  0  0  0  0  0  0  0  0  0
   -0.8495   -7.1299   -0.6791 H   0  0  0  0  0  0  0  0  0  0  0  0
    0.3661   -6.2380    0.2461 H   0  0  0  0  0  0  0  0  0  0  0  0
  1 15  1  0  0  0  0
  1 18  1  0  0  0  0
  2  9  2  0  0  0  0
  3 21  2  0  0  0  0
  4 18  1  0  0  0  0
  4 21  1  0  0  0  0
  4 23  1  0  0  0  0
  5 18  2  0  0  0  0
  5 19  1  0  0  0  0
  6  7  1  0  0  0  0
  6  8  2  0  0  0  0
  6 11  1  0  0  0  0
  7  9  1  0  0  0  0
  7 10  2  0  0  0  0
  8 12  1  0  0  0  0
  8 13  1  0  0  0  0
  9 15  1  0  0  0  0
 10 14  1  0  0  0  0
 10 24  1  0  0  0  0
 11 16  2  0  0  0  0
 11 25  1  0  0  0  0
 12 14  2  0  0  0  0
 12 26  1  0  0  0  0
 13 17  2  0  0  0  0
 13 27  1  0  0  0  0
 14 28  1  0  0  0  0
 15 29  1  0  0  0  0
 15 30  1  0  0  0  0
 16 17  1  0  0  0  0
 16 31  1  0  0  0  0
 17 32  1  0  0  0  0
 19 20  2  0  0  0  0
 19 22  1  0  0  0  0
 20 21  1  0  0  0  0
 20 33  1  0  0  0  0
 22 34  1  0  0  0  0
 22 35  1  0  0  0  0
 22 36  1  0  0  0  0
M  END
>  <Mol_ID>
5870

>  <Formula>
C17H14N2O2S

>  <MolWeight>
310.37026

>  <Cat>
S3541

>  <Name>
I3MT-3

>  <Synonyms>
HMPSNE

>  <Target>
3-MST

>  <Form>
Free Base

>  <CAS>
459420-09-8

>  <URL>
http://www.selleckchem.com/products/i3mt-3.html

$$$$
