IBMX
 OpenBabel08302520143D

 30 31  0  0  0  0  0  0  0  0999 V2000
   -0.3107    0.5939    0.1596 C   0  0  0  0  0  0  0  0  0  0  0  0
    0.8146    1.3788    0.0253 N   0  0  0  0  0  0  0  0  0  0  0  0
   -0.2728   -0.7690    0.0812 C   0  0  0  0  0  0  0  0  0  0  0  0
   -1.6229    0.9193    0.3571 N   0  0  0  0  0  0  0  0  0  0  0  0
    2.1032    0.7224   -0.0885 C   0  0  0  0  0  0  0  0  0  0  0  0
    0.7662    2.8582    0.0343 C   0  0  0  0  0  0  0  0  0  0  0  0
    0.9697   -1.4814   -0.0469 C   0  0  0  0  0  0  0  0  0  0  0  0
   -1.5474   -1.2883    0.1385 N   0  0  0  0  0  0  0  0  0  0  0  0
   -2.3369   -0.2464    0.2826 C   0  0  0  0  0  0  0  0  0  0  0  0
    2.1068   -0.6651   -0.0503 N   0  0  0  0  0  0  0  0  0  0  0  0
    3.0903    1.4330   -0.2032 O   0  0  0  0  0  0  0  0  0  0  0  0
    0.5941    3.4478   -1.3788 C   0  0  0  0  0  0  0  0  0  0  0  0
    1.0307   -2.7040   -0.1342 O   0  0  0  0  0  0  0  0  0  0  0  0
    3.3820   -1.3545   -0.0754 C   0  0  0  0  0  0  0  0  0  0  0  0
   -0.6934    3.0018   -2.0744 C   0  0  0  0  0  0  0  0  0  0  0  0
    0.6033    4.9779   -1.2942 C   0  0  0  0  0  0  0  0  0  0  0  0
   -2.0147    1.8384    0.5044 H   0  0  0  0  0  0  0  0  0  0  0  0
   -0.0502    3.1841    0.6904 H   0  0  0  0  0  0  0  0  0  0  0  0
    1.6846    3.2464    0.4918 H   0  0  0  0  0  0  0  0  0  0  0  0
   -3.4185   -0.2731    0.3436 H   0  0  0  0  0  0  0  0  0  0  0  0
    1.4391    3.1329   -2.0037 H   0  0  0  0  0  0  0  0  0  0  0  0
    3.4462   -2.0072    0.8026 H   0  0  0  0  0  0  0  0  0  0  0  0
    3.4364   -1.9811   -0.9712 H   0  0  0  0  0  0  0  0  0  0  0  0
    4.2317   -0.6667   -0.0644 H   0  0  0  0  0  0  0  0  0  0  0  0
   -1.5731    3.2042   -1.4544 H   0  0  0  0  0  0  0  0  0  0  0  0
   -0.8299    3.5346   -3.0223 H   0  0  0  0  0  0  0  0  0  0  0  0
   -0.6684    1.9344   -2.3117 H   0  0  0  0  0  0  0  0  0  0  0  0
    1.5617    5.3436   -0.9138 H   0  0  0  0  0  0  0  0  0  0  0  0
    0.4408    5.4285   -2.2793 H   0  0  0  0  0  0  0  0  0  0  0  0
   -0.1882    5.3407   -0.6271 H   0  0  0  0  0  0  0  0  0  0  0  0
  1  2  1  0  0  0  0
  1  3  2  0  0  0  0
  1  4  1  0  0  0  0
  2  5  1  0  0  0  0
  2  6  1  0  0  0  0
  3  7  1  0  0  0  0
  3  8  1  0  0  0  0
  4  9  1  0  0  0  0
  4 17  1  0  0  0  0
  5 10  1  0  0  0  0
  5 11  2  0  0  0  0
  6 12  1  0  0  0  0
  6 18  1  0  0  0  0
  6 19  1  0  0  0  0
  7 13  2  0  0  0  0
  7 10  1  0  0  0  0
  8  9  2  0  0  0  0
  9 20  1  0  0  0  0
 10 14  1  0  0  0  0
 12 15  1  0  0  0  0
 12 16  1  0  0  0  0
 12 21  1  0  0  0  0
 14 22  1  0  0  0  0
 14 23  1  0  0  0  0
 14 24  1  0  0  0  0
 15 25  1  0  0  0  0
 15 26  1  0  0  0  0
 15 27  1  0  0  0  0
 16 28  1  0  0  0  0
 16 29  1  0  0  0  0
 16 30  1  0  0  0  0
M  END
>  <Mol_ID>
3149

>  <Formula>
C10H14N4O2

>  <MolWeight>
222.24376

>  <Cat>
S5836

>  <Name>
IBMX

>  <Synonyms>
Isobutylmethylxanthine, 1-Methyl-3-Isobutylxanthine

>  <Target>
PDE

>  <Form>
Free Base

>  <CAS>
28822-58-4

>  <URL>
http://www.selleckchem.com/products/ibmx.html

$$$$
