ICCB-19 hydrochloride
 OpenBabel08302521313D

 38 39  0  0  0  0  0  0  0  0999 V2000
    4.0401   -2.2685   -2.4079 S   0  0  0  0  0  0  0  0  0  0  0  0
    1.3669   -1.3555   -0.3537 O   0  0  0  0  0  0  0  0  0  0  0  0
    0.6413   -1.6520   -2.5051 N   0  0  0  0  0  0  0  0  0  0  0  0
    4.0005   -0.8420   -0.0702 N   0  0  0  0  0  0  0  0  0  0  0  0
    5.6174   -0.3255   -1.5825 N   0  0  0  0  0  0  0  0  0  0  0  0
   -0.4533   -0.6615   -2.5398 C   0  0  0  0  0  0  0  0  0  0  0  0
    0.0263    0.7779   -2.2920 C   0  0  0  0  0  0  0  0  0  0  0  0
   -1.7089   -1.1072   -1.7700 C   0  0  0  0  0  0  0  0  0  0  0  0
   -1.0997    1.8102   -2.1669 C   0  0  0  0  0  0  0  0  0  0  0  0
   -1.8926   -0.5798   -0.3471 C   0  0  0  0  0  0  0  0  0  0  0  0
   -1.6300    1.9515   -0.7408 C   0  0  0  0  0  0  0  0  0  0  0  0
   -2.5221    0.8099   -0.2705 C   0  0  0  0  0  0  0  0  0  0  0  0
    1.4603   -1.9259   -1.4426 C   0  0  0  0  0  0  0  0  0  0  0  0
    2.5505   -2.9712   -1.6736 C   0  0  0  0  0  0  0  0  0  0  0  0
    4.3616    0.5099    0.2857 C   0  0  0  0  0  0  0  0  0  0  0  0
    4.6006   -1.0889   -1.2688 C   0  0  0  0  0  0  0  0  0  0  0  0
    5.7064    0.6231   -0.4314 C   0  0  0  0  0  0  0  0  0  0  0  0
    0.8088   -2.1682   -3.3622 H   0  0  0  0  0  0  0  0  0  0  0  0
    3.0108   -1.0533    0.0352 H   0  0  0  0  0  0  0  0  0  0  0  0
   -0.7499   -0.6923   -3.5960 H   0  0  0  0  0  0  0  0  0  0  0  0
    0.6848    0.8440   -1.4198 H   0  0  0  0  0  0  0  0  0  0  0  0
    0.6512    1.0645   -3.1490 H   0  0  0  0  0  0  0  0  0  0  0  0
   -2.5883   -0.8013   -2.3573 H   0  0  0  0  0  0  0  0  0  0  0  0
   -1.7444   -2.2037   -1.7483 H   0  0  0  0  0  0  0  0  0  0  0  0
   -0.6927    2.7870   -2.4580 H   0  0  0  0  0  0  0  0  0  0  0  0
   -1.9164    1.5973   -2.8665 H   0  0  0  0  0  0  0  0  0  0  0  0
   -0.9561   -0.6055    0.2157 H   0  0  0  0  0  0  0  0  0  0  0  0
   -2.5803   -1.2642    0.1666 H   0  0  0  0  0  0  0  0  0  0  0  0
   -0.7922    2.0725   -0.0432 H   0  0  0  0  0  0  0  0  0  0  0  0
   -2.2116    2.8812   -0.6789 H   0  0  0  0  0  0  0  0  0  0  0  0
   -2.7949    1.0054    0.7773 H   0  0  0  0  0  0  0  0  0  0  0  0
   -3.4671    0.8276   -0.8293 H   0  0  0  0  0  0  0  0  0  0  0  0
    2.1696   -3.7467   -2.3461 H   0  0  0  0  0  0  0  0  0  0  0  0
    2.7940   -3.4640   -0.7263 H   0  0  0  0  0  0  0  0  0  0  0  0
    4.4186    0.6709    1.3633 H   0  0  0  0  0  0  0  0  0  0  0  0
    3.6342    1.2049   -0.1528 H   0  0  0  0  0  0  0  0  0  0  0  0
    5.8858    1.6425   -0.7855 H   0  0  0  0  0  0  0  0  0  0  0  0
    6.5319    0.3255    0.2256 H   0  0  0  0  0  0  0  0  0  0  0  0
  1 14  1  0  0  0  0
  1 16  1  0  0  0  0
  2 13  2  0  0  0  0
  3  6  1  0  0  0  0
  3 13  1  0  0  0  0
  3 18  1  0  0  0  0
  4 15  1  0  0  0  0
  4 16  1  0  0  0  0
  4 19  1  0  0  0  0
  5 16  2  0  0  0  0
  5 17  1  0  0  0  0
  6  7  1  0  0  0  0
  6  8  1  0  0  0  0
  6 20  1  0  0  0  0
  7  9  1  0  0  0  0
  7 21  1  0  0  0  0
  7 22  1  0  0  0  0
  8 10  1  0  0  0  0
  8 23  1  0  0  0  0
  8 24  1  0  0  0  0
  9 11  1  0  0  0  0
  9 25  1  0  0  0  0
  9 26  1  0  0  0  0
 10 12  1  0  0  0  0
 10 27  1  0  0  0  0
 10 28  1  0  0  0  0
 11 12  1  0  0  0  0
 11 29  1  0  0  0  0
 11 30  1  0  0  0  0
 12 31  1  0  0  0  0
 12 32  1  0  0  0  0
 13 14  1  0  0  0  0
 14 33  1  0  0  0  0
 14 34  1  0  0  0  0
 15 17  1  0  0  0  0
 15 35  1  0  0  0  0
 15 36  1  0  0  0  0
 17 37  1  0  0  0  0
 17 38  1  0  0  0  0
M  END
>  <Mol_ID>
5885

>  <Formula>
C12H22ClN3OS

>  <MolWeight>
291.84058

>  <Cat>
S6078

>  <Name>
ICCB-19 hydrochloride

>  <Synonyms>
N/A

>  <Target>
Autophagy,RIP kinase

>  <Form>
Hydrochloride

>  <CAS>
1803605-68-6

>  <URL>
http://www.selleckchem.com/products/iccb-19-hydrochloride.html

$$$$
