icotinib.cdx
 OpenBabel08302522013D

 50 53  0  0  0  0  0  0  0  0999 V2000
    1.9232   -4.5750    0.7350 C   0  0  0  0  0  0  0  0  0  0  0  0
    0.9805   -5.5936    0.8897 C   0  0  0  0  0  0  0  0  0  0  0  0
   -0.3674   -5.3509    0.6179 C   0  0  0  0  0  0  0  0  0  0  0  0
   -0.7686   -4.1020    0.1535 C   0  0  0  0  0  0  0  0  0  0  0  0
    0.1763   -3.0884   -0.0084 C   0  0  0  0  0  0  0  0  0  0  0  0
    1.5300   -3.3147    0.2773 C   0  0  0  0  0  0  0  0  0  0  0  0
    1.3889   -6.8860    1.3309 C   0  0  0  0  0  0  0  0  0  0  0  0
    1.7219   -7.9880    1.6824 C   0  0  0  0  0  0  0  0  0  0  0  0
    2.4109   -2.2080    0.2922 N   0  0  0  0  0  0  0  0  0  0  0  0
    3.7795   -2.2190   -0.0889 C   0  0  0  0  0  0  0  0  0  0  0  0
    4.1958   -3.1989   -0.9150 N   0  0  0  0  0  0  0  0  0  0  0  0
    5.3765   -3.0284   -1.5102 C   0  0  0  0  0  0  0  0  0  0  0  0
    6.1616   -1.9535   -1.3987 N   0  0  0  0  0  0  0  0  0  0  0  0
    5.7472   -0.9929   -0.5686 C   0  0  0  0  0  0  0  0  0  0  0  0
    4.5804   -1.0931    0.1971 C   0  0  0  0  0  0  0  0  0  0  0  0
    6.4826    0.1829   -0.5144 C   0  0  0  0  0  0  0  0  0  0  0  0
    6.1292    1.2433    0.3253 C   0  0  0  0  0  0  0  0  0  0  0  0
    5.0652    1.0811    1.2156 C   0  0  0  0  0  0  0  0  0  0  0  0
    4.2823   -0.0682    1.1361 C   0  0  0  0  0  0  0  0  0  0  0  0
    6.7316    2.4632    0.3165 O   0  0  0  0  0  0  0  0  0  0  0  0
    7.7244    2.7520   -0.6654 C   0  0  0  0  0  0  0  0  0  0  0  0
    5.4641    2.4381    3.1228 C   0  0  0  0  0  0  0  0  0  0  0  0
    4.5989    2.0820    2.0293 O   0  0  0  0  0  0  0  0  0  0  0  0
    8.3711    4.1260   -0.4005 C   0  0  0  0  0  0  0  0  0  0  0  0
    7.5242    5.0467    0.2976 O   0  0  0  0  0  0  0  0  0  0  0  0
    7.5737    4.8095    1.7076 C   0  0  0  0  0  0  0  0  0  0  0  0
    6.4136    5.4724    2.4349 C   0  0  0  0  0  0  0  0  0  0  0  0
    6.1559    4.7931    3.6720 O   0  0  0  0  0  0  0  0  0  0  0  0
    5.0758    3.8505    3.6067 C   0  0  0  0  0  0  0  0  0  0  0  0
    2.9649   -4.7681    0.9788 H   0  0  0  0  0  0  0  0  0  0  0  0
   -1.1050   -6.1351    0.7675 H   0  0  0  0  0  0  0  0  0  0  0  0
   -1.8116   -3.9159   -0.0790 H   0  0  0  0  0  0  0  0  0  0  0  0
   -0.1393   -2.1165   -0.3793 H   0  0  0  0  0  0  0  0  0  0  0  0
    2.0234   -8.9626    1.9689 H   0  0  0  0  0  0  0  0  0  0  0  0
    2.2767   -1.7156    1.1663 H   0  0  0  0  0  0  0  0  0  0  0  0
    5.7176   -3.8236   -2.1643 H   0  0  0  0  0  0  0  0  0  0  0  0
    7.3216    0.2629   -1.1984 H   0  0  0  0  0  0  0  0  0  0  0  0
    3.4289   -0.1478    1.8024 H   0  0  0  0  0  0  0  0  0  0  0  0
    8.5239    2.0023   -0.6352 H   0  0  0  0  0  0  0  0  0  0  0  0
    7.2699    2.7473   -1.6633 H   0  0  0  0  0  0  0  0  0  0  0  0
    6.5256    2.3439    2.8875 H   0  0  0  0  0  0  0  0  0  0  0  0
    5.2609    1.7284    3.9353 H   0  0  0  0  0  0  0  0  0  0  0  0
    9.3086    4.0004    0.1553 H   0  0  0  0  0  0  0  0  0  0  0  0
    8.6450    4.5786   -1.3600 H   0  0  0  0  0  0  0  0  0  0  0  0
    8.5257    5.1794    2.1021 H   0  0  0  0  0  0  0  0  0  0  0  0
    7.5780    3.7452    1.9214 H   0  0  0  0  0  0  0  0  0  0  0  0
    6.7132    6.4977    2.6858 H   0  0  0  0  0  0  0  0  0  0  0  0
    5.5115    5.5597    1.8184 H   0  0  0  0  0  0  0  0  0  0  0  0
    4.7248    3.7599    4.6412 H   0  0  0  0  0  0  0  0  0  0  0  0
    4.2393    4.2693    3.0353 H   0  0  0  0  0  0  0  0  0  0  0  0
  1  2  2  0  0  0  0
  1 30  1  0  0  0  0
  2  3  1  0  0  0  0
  2  7  1  0  0  0  0
  3  4  2  0  0  0  0
  3 31  1  0  0  0  0
  4  5  1  0  0  0  0
  4 32  1  0  0  0  0
  5  6  2  0  0  0  0
  5 33  1  0  0  0  0
  6  1  1  0  0  0  0
  6  9  1  0  0  0  0
  7  8  3  0  0  0  0
  8 34  1  0  0  0  0
  9 10  1  0  0  0  0
  9 35  1  0  0  0  0
 10 11  2  0  0  0  0
 11 12  1  0  0  0  0
 12 13  2  0  0  0  0
 12 36  1  0  0  0  0
 13 14  1  0  0  0  0
 14 15  2  0  0  0  0
 14 16  1  0  0  0  0
 15 10  1  0  0  0  0
 16 17  2  0  0  0  0
 16 37  1  0  0  0  0
 17 18  1  0  0  0  0
 17 20  1  0  0  0  0
 18 19  2  0  0  0  0
 19 15  1  0  0  0  0
 19 38  1  0  0  0  0
 20 21  1  0  0  0  0
 21 39  1  0  0  0  0
 21 40  1  0  0  0  0
 22 23  1  0  0  0  0
 22 41  1  0  0  0  0
 22 42  1  0  0  0  0
 23 18  1  0  0  0  0
 24 25  1  0  0  0  0
 24 21  1  0  0  0  0
 24 43  1  0  0  0  0
 24 44  1  0  0  0  0
 25 26  1  0  0  0  0
 26 27  1  0  0  0  0
 26 45  1  0  0  0  0
 26 46  1  0  0  0  0
 27 28  1  0  0  0  0
 27 47  1  0  0  0  0
 27 48  1  0  0  0  0
 28 29  1  0  0  0  0
 29 22  1  0  0  0  0
 29 49  1  0  0  0  0
 29 50  1  0  0  0  0
M  END
>  <Mol_ID>
1100

>  <Formula>
C22H21N3O4

>  <MolWeight>
391.41984

>  <Cat>
S2922

>  <Name>
Icotinib (BPI-2009H)

>  <Synonyms>
BPI-2009H

>  <Target>
EGFR

>  <Form>
free base

>  <CAS>
610798-31-7

>  <URL>
http://selleckchem.com/products/icotinib.html

$$$$
