iCRT3.cdx
 OpenBabel08302520433D

 54 56  0  0  0  0  0  0  0  0999 V2000
    8.0681    9.5361    6.4626 C   0  0  0  0  0  0  0  0  0  0  0  0
    7.5278    9.3064    7.7264 C   0  0  0  0  0  0  0  0  0  0  0  0
    6.5672    8.3120    7.9042 C   0  0  0  0  0  0  0  0  0  0  0  0
    6.1264    7.5629    6.8133 C   0  0  0  0  0  0  0  0  0  0  0  0
    6.6435    7.8066    5.5347 C   0  0  0  0  0  0  0  0  0  0  0  0
    7.6322    8.7862    5.3711 C   0  0  0  0  0  0  0  0  0  0  0  0
    6.0672    7.1066    4.3327 C   0  0  0  0  0  0  0  0  0  0  0  0
    4.9650    7.9568    3.7029 C   0  0  0  0  0  0  0  0  0  0  0  0
    4.3942    7.3343    2.5304 N   0  0  0  0  0  0  0  0  0  0  0  0
    3.4220    7.9376    1.7701 C   0  0  0  0  0  0  0  0  0  0  0  0
    2.9349    7.1524    0.5555 C   0  0  0  0  0  0  0  0  0  0  0  0
    3.8801    5.6144    0.2742 S   0  0  0  0  0  0  0  0  0  0  0  0
    3.0054    5.0116   -1.2034 C   0  0  0  0  0  0  0  0  0  0  0  0
    2.9526    9.0426    2.0423 O   0  0  0  0  0  0  0  0  0  0  0  0
    3.5673    3.7008   -1.6220 C   0  0  0  0  0  0  0  0  0  0  0  0
    4.6240    3.4313   -2.4667 C   0  0  0  0  0  0  0  0  0  0  0  0
    4.7782    2.0769   -2.5269 O   0  0  0  0  0  0  0  0  0  0  0  0
    3.7899    1.5787   -1.7179 C   0  0  0  0  0  0  0  0  0  0  0  0
    3.0349    2.5101   -1.1636 N   0  0  0  0  0  0  0  0  0  0  0  0
    5.5637    4.2361   -3.2645 C   0  0  0  0  0  0  0  0  0  0  0  0
    3.6815    0.1234   -1.6480 C   0  0  0  0  0  0  0  0  0  0  0  0
    4.6119   -0.7131   -2.2819 C   0  0  0  0  0  0  0  0  0  0  0  0
    4.4457   -2.1011   -2.2833 C   0  0  0  0  0  0  0  0  0  0  0  0
    3.3412   -2.6841   -1.6527 C   0  0  0  0  0  0  0  0  0  0  0  0
    2.4386   -1.8594   -0.9710 C   0  0  0  0  0  0  0  0  0  0  0  0
    2.6079   -0.4698   -0.9700 C   0  0  0  0  0  0  0  0  0  0  0  0
    3.1239   -4.1741   -1.7246 C   0  0  0  0  0  0  0  0  0  0  0  0
    3.8255   -4.9249   -0.6054 C   0  0  0  0  0  0  0  0  0  0  0  0
    8.8154   10.3126    6.3229 H   0  0  0  0  0  0  0  0  0  0  0  0
    7.8503    9.9077    8.5721 H   0  0  0  0  0  0  0  0  0  0  0  0
    6.1473    8.1325    8.8903 H   0  0  0  0  0  0  0  0  0  0  0  0
    5.3590    6.8068    6.9631 H   0  0  0  0  0  0  0  0  0  0  0  0
    8.0471    8.9896    4.3862 H   0  0  0  0  0  0  0  0  0  0  0  0
    6.8628    6.9046    3.6024 H   0  0  0  0  0  0  0  0  0  0  0  0
    5.6738    6.1216    4.6187 H   0  0  0  0  0  0  0  0  0  0  0  0
    4.1501    8.1350    4.4149 H   0  0  0  0  0  0  0  0  0  0  0  0
    5.3502    8.9392    3.4029 H   0  0  0  0  0  0  0  0  0  0  0  0
    4.7200    6.4209    2.2252 H   0  0  0  0  0  0  0  0  0  0  0  0
    1.8799    6.9083    0.7119 H   0  0  0  0  0  0  0  0  0  0  0  0
    3.0419    7.7957   -0.3231 H   0  0  0  0  0  0  0  0  0  0  0  0
    1.9388    4.9072   -0.9811 H   0  0  0  0  0  0  0  0  0  0  0  0
    3.1172    5.7462   -2.0075 H   0  0  0  0  0  0  0  0  0  0  0  0
    6.5921    4.0666   -2.9320 H   0  0  0  0  0  0  0  0  0  0  0  0
    5.4947    3.9612   -4.3218 H   0  0  0  0  0  0  0  0  0  0  0  0
    5.3484    5.3048   -3.1782 H   0  0  0  0  0  0  0  0  0  0  0  0
    5.4689   -0.2895   -2.8015 H   0  0  0  0  0  0  0  0  0  0  0  0
    5.1738   -2.7210   -2.8018 H   0  0  0  0  0  0  0  0  0  0  0  0
    1.5827   -2.2891   -0.4551 H   0  0  0  0  0  0  0  0  0  0  0  0
    1.8795    0.1544   -0.4546 H   0  0  0  0  0  0  0  0  0  0  0  0
    2.0489   -4.3904   -1.6980 H   0  0  0  0  0  0  0  0  0  0  0  0
    3.4789   -4.5445   -2.6946 H   0  0  0  0  0  0  0  0  0  0  0  0
    3.4417   -4.6244    0.3749 H   0  0  0  0  0  0  0  0  0  0  0  0
    3.6628   -6.0019   -0.7177 H   0  0  0  0  0  0  0  0  0  0  0  0
    4.9051   -4.7427   -0.6173 H   0  0  0  0  0  0  0  0  0  0  0  0
  1  2  2  0  0  0  0
  1 29  1  0  0  0  0
  2  3  1  0  0  0  0
  2 30  1  0  0  0  0
  3  4  2  0  0  0  0
  3 31  1  0  0  0  0
  4  5  1  0  0  0  0
  4 32  1  0  0  0  0
  5  6  2  0  0  0  0
  5  7  1  0  0  0  0
  6  1  1  0  0  0  0
  6 33  1  0  0  0  0
  7  8  1  0  0  0  0
  7 34  1  0  0  0  0
  7 35  1  0  0  0  0
  8  9  1  0  0  0  0
  8 36  1  0  0  0  0
  8 37  1  0  0  0  0
  9 10  1  0  0  0  0
  9 38  1  0  0  0  0
 10 11  1  0  0  0  0
 10 14  2  0  0  0  0
 11 12  1  0  0  0  0
 11 39  1  0  0  0  0
 11 40  1  0  0  0  0
 12 13  1  0  0  0  0
 13 15  1  0  0  0  0
 13 41  1  0  0  0  0
 13 42  1  0  0  0  0
 15 16  2  0  0  0  0
 16 17  1  0  0  0  0
 16 20  1  0  0  0  0
 17 18  1  0  0  0  0
 18 19  2  0  0  0  0
 18 21  1  0  0  0  0
 19 15  1  0  0  0  0
 20 43  1  0  0  0  0
 20 44  1  0  0  0  0
 20 45  1  0  0  0  0
 21 22  2  0  0  0  0
 22 23  1  0  0  0  0
 22 46  1  0  0  0  0
 23 24  2  0  0  0  0
 23 47  1  0  0  0  0
 24 25  1  0  0  0  0
 24 27  1  0  0  0  0
 25 26  2  0  0  0  0
 25 48  1  0  0  0  0
 26 21  1  0  0  0  0
 26 49  1  0  0  0  0
 27 28  1  0  0  0  0
 27 50  1  0  0  0  0
 27 51  1  0  0  0  0
 28 52  1  0  0  0  0
 28 53  1  0  0  0  0
 28 54  1  0  0  0  0
M  END
>  <Mol_ID>
4182

>  <Formula>
C23H26N2O2S

>  <MolWeight>
394.52974

>  <Cat>
S8647

>  <Name>
iCRT3

>  <Synonyms>
N/A

>  <Target>
Wnt/beta-catenin

>  <Form>
free base

>  <CAS>
901751-47-1

>  <URL>
http://selleckchem.com/products/icrt3.html

$$$$
