IDF-11774
 OpenBabel08302521043D

 59 63  0  0  0  0  0  0  0  0999 V2000
    1.3503   -0.1394   -0.0076 C   0  0  0  0  0  0  0  0  0  0  0  0
    0.5258   -1.2713    0.0614 C   0  0  0  0  0  0  0  0  0  0  0  0
   -0.8522   -1.0488    0.2263 C   0  0  0  0  0  0  0  0  0  0  0  0
   -1.3730    0.2516    0.3292 C   0  0  0  0  0  0  0  0  0  0  0  0
   -0.5254    1.3584    0.2794 C   0  0  0  0  0  0  0  0  0  0  0  0
    0.8351    1.1532    0.0967 C   0  0  0  0  0  0  0  0  0  0  0  0
   -1.1167    2.5906    0.3907 O   0  0  0  0  0  0  0  0  0  0  0  0
    1.1049   -2.6908   -0.0367 C   0  0  3  0  0  0  0  0  0  0  0  0
   -0.2559    3.6239    0.8609 C   0  0  0  0  0  0  0  0  0  0  0  0
   -0.9261    4.9938    0.9059 C   0  0  0  0  0  0  0  0  0  0  0  0
   -2.0398    5.1666    1.7058 N   0  0  0  0  0  0  0  0  0  0  0  0
   -0.4353    5.9282    0.2638 O   0  0  0  0  0  0  0  0  0  0  0  0
   -2.5948    4.1755    2.6325 C   0  0  0  0  0  0  0  0  0  0  0  0
   -4.1373    4.1461    2.5752 C   0  0  0  0  0  0  0  0  0  0  0  0
   -4.7986    5.4660    2.6705 N   0  0  0  0  0  0  0  0  0  0  0  0
   -4.1851    6.4005    1.7020 C   0  0  0  0  0  0  0  0  0  0  0  0
   -2.6519    6.4919    1.7838 C   0  0  0  0  0  0  0  0  0  0  0  0
   -4.7570    5.9986    4.0300 C   0  0  0  0  0  0  0  0  0  0  0  0
    2.6594   -2.6923   -0.1850 C   0  0  0  0  0  0  0  0  0  0  0  0
    3.2264   -4.1120   -0.2726 C   0  0  3  0  0  0  0  0  0  0  0  0
    2.6204   -4.8106   -1.4963 C   0  0  0  0  0  0  0  0  0  0  0  0
    1.0918   -4.8727   -1.3584 C   0  0  3  0  0  0  0  0  0  0  0  0
    0.5216   -3.4433   -1.2664 C   0  0  0  0  0  0  0  0  0  0  0  0
    2.8561   -4.8724    1.0068 C   0  0  0  0  0  0  0  0  0  0  0  0
    1.3286   -4.9386    1.1506 C   0  0  3  0  0  0  0  0  0  0  0  0
    0.7589   -3.5101    1.2403 C   0  0  0  0  0  0  0  0  0  0  0  0
    0.7345   -5.6462   -0.0785 C   0  0  0  0  0  0  0  0  0  0  0  0
    2.4234   -0.2166   -0.1508 H   0  0  0  0  0  0  0  0  0  0  0  0
   -1.5474   -1.8844    0.2747 H   0  0  0  0  0  0  0  0  0  0  0  0
   -2.4431    0.3934    0.4556 H   0  0  0  0  0  0  0  0  0  0  0  0
    1.5434    1.9694    0.0082 H   0  0  0  0  0  0  0  0  0  0  0  0
    0.1191    3.3904    1.8655 H   0  0  0  0  0  0  0  0  0  0  0  0
    0.5933    3.7547    0.1805 H   0  0  0  0  0  0  0  0  0  0  0  0
   -2.2080    3.1746    2.4384 H   0  0  0  0  0  0  0  0  0  0  0  0
   -2.2543    4.4533    3.6369 H   0  0  0  0  0  0  0  0  0  0  0  0
   -4.4348    3.6975    1.6181 H   0  0  0  0  0  0  0  0  0  0  0  0
   -4.5228    3.4728    3.3505 H   0  0  0  0  0  0  0  0  0  0  0  0
   -4.4567    6.0608    0.6935 H   0  0  0  0  0  0  0  0  0  0  0  0
   -4.6224    7.4004    1.8076 H   0  0  0  0  0  0  0  0  0  0  0  0
   -2.3341    6.9414    2.7318 H   0  0  0  0  0  0  0  0  0  0  0  0
   -2.2880    7.1430    0.9824 H   0  0  0  0  0  0  0  0  0  0  0  0
   -3.7408    6.1300    4.4148 H   0  0  0  0  0  0  0  0  0  0  0  0
   -5.2646    6.9687    4.0743 H   0  0  0  0  0  0  0  0  0  0  0  0
   -5.2960    5.3336    4.7131 H   0  0  0  0  0  0  0  0  0  0  0  0
    2.9574   -2.1437   -1.0891 H   0  0  0  0  0  0  0  0  0  0  0  0
    3.1239   -2.1828    0.6701 H   0  0  0  0  0  0  0  0  0  0  0  0
    4.3164   -4.0651   -0.3739 H   0  0  0  0  0  0  0  0  0  0  0  0
    3.0334   -5.8221   -1.5907 H   0  0  0  0  0  0  0  0  0  0  0  0
    2.8922   -4.2688   -2.4108 H   0  0  0  0  0  0  0  0  0  0  0  0
    0.6659   -5.3830   -2.2293 H   0  0  0  0  0  0  0  0  0  0  0  0
   -0.5726   -3.5035   -1.2057 H   0  0  0  0  0  0  0  0  0  0  0  0
    0.7487   -2.8936   -2.1895 H   0  0  0  0  0  0  0  0  0  0  0  0
    3.2781   -5.8839    0.9755 H   0  0  0  0  0  0  0  0  0  0  0  0
    3.2927   -4.3718    1.8802 H   0  0  0  0  0  0  0  0  0  0  0  0
    1.0694   -5.4954    2.0579 H   0  0  0  0  0  0  0  0  0  0  0  0
    1.1575   -3.0075    2.1319 H   0  0  0  0  0  0  0  0  0  0  0  0
   -0.3274   -3.5740    1.3840 H   0  0  0  0  0  0  0  0  0  0  0  0
   -0.3549   -5.7222    0.0223 H   0  0  0  0  0  0  0  0  0  0  0  0
    1.1209   -6.6710   -0.1418 H   0  0  0  0  0  0  0  0  0  0  0  0
  1  2  2  0  0  0  0
  1 28  1  0  0  0  0
  2  3  1  0  0  0  0
  2  8  1  0  0  0  0
  3  4  2  0  0  0  0
  3 29  1  0  0  0  0
  4  5  1  0  0  0  0
  4 30  1  0  0  0  0
  5  6  2  0  0  0  0
  5  7  1  0  0  0  0
  6  1  1  0  0  0  0
  6 31  1  0  0  0  0
  7  9  1  0  0  0  0
  8 19  1  0  0  0  0
  9 10  1  0  0  0  0
  9 32  1  0  0  0  0
  9 33  1  0  0  0  0
 10 11  1  0  0  0  0
 10 12  2  0  0  0  0
 11 13  1  0  0  0  0
 13 14  1  0  0  0  0
 13 34  1  0  0  0  0
 13 35  1  0  0  0  0
 14 15  1  0  0  0  0
 14 36  1  0  0  0  0
 14 37  1  0  0  0  0
 15 16  1  0  0  0  0
 15 18  1  0  0  0  0
 16 17  1  0  0  0  0
 16 38  1  0  0  0  0
 16 39  1  0  0  0  0
 17 11  1  0  0  0  0
 17 40  1  0  0  0  0
 17 41  1  0  0  0  0
 18 42  1  0  0  0  0
 18 43  1  0  0  0  0
 18 44  1  0  0  0  0
 19 20  1  0  0  0  0
 19 45  1  0  0  0  0
 19 46  1  0  0  0  0
 20 21  1  0  0  0  0
 20 24  1  0  0  0  0
 20 47  1  0  0  0  0
 21 22  1  0  0  0  0
 21 48  1  0  0  0  0
 21 49  1  0  0  0  0
 22 23  1  0  0  0  0
 22 50  1  0  0  0  0
 23  8  1  0  0  0  0
 23 51  1  0  0  0  0
 23 52  1  0  0  0  0
 24 25  1  0  0  0  0
 24 53  1  0  0  0  0
 24 54  1  0  0  0  0
 25 26  1  0  0  0  0
 25 27  1  0  0  0  0
 25 55  1  0  0  0  0
 26  8  1  0  0  0  0
 26 56  1  0  0  0  0
 26 57  1  0  0  0  0
 27 22  1  0  0  0  0
 27 58  1  0  0  0  0
 27 59  1  0  0  0  0
M  END
>  <Mol_ID>
4323

>  <Formula>
C23H32N2O2

>  <MolWeight>
368.51238

>  <Cat>
S8771

>  <Name>
IDF-11774

>  <Synonyms>
N/A

>  <Target>
HIF

>  <Form>
Free Base

>  <CAS>
1429054-28-3

>  <URL>
http://www.selleckchem.com/products/idf-11774.html

$$$$
