IDO-IN-1
 OpenBabel08302521233D

 25 26  0  0  0  0  0  0  0  0999 V2000
    0.0148    0.8924   -0.6194 O   0  0  0  0  0  0  0  0  0  0  0  0
    0.5509   -0.3388   -0.9631 N   0  0  0  0  0  0  0  0  0  0  0  0
   -0.0002   -1.2206   -0.1119 C   0  0  0  0  0  0  0  0  0  0  0  0
   -0.9443   -0.5292    0.6930 C   0  0  0  0  0  0  0  0  0  0  0  0
   -0.9160    0.7689    0.3958 N   0  0  0  0  0  0  0  0  0  0  0  0
    0.3841   -2.6396   -0.1111 C   0  0  0  0  0  0  0  0  0  0  0  0
    1.7106   -2.9267   -0.4306 N   0  0  0  0  0  0  0  0  0  0  0  0
   -0.5371   -3.5145    0.1855 N   0  0  0  0  0  0  0  0  0  0  0  0
    2.6146   -1.8990   -0.6820 O   0  0  0  0  0  0  0  0  0  0  0  0
   -0.2803   -4.9092    0.1360 C   0  0  0  0  0  0  0  0  0  0  0  0
    0.5426   -5.5227   -0.8229 C   0  0  0  0  0  0  0  0  0  0  0  0
    0.8172   -6.8947   -0.7671 C   0  0  0  0  0  0  0  0  0  0  0  0
    0.1958   -7.6852    0.1896 C   0  0  0  0  0  0  0  0  0  0  0  0
   -0.6952   -7.1152    1.0905 C   0  0  0  0  0  0  0  0  0  0  0  0
   -0.9227   -5.7323    1.0658 C   0  0  0  0  0  0  0  0  0  0  0  0
    0.4373   -9.0025    0.2578 F   0  0  0  0  0  0  0  0  0  0  0  0
    2.0656   -7.6385   -1.9781 Br  0  0  0  0  0  0  0  0  0  0  0  0
   -1.7532   -1.0511    1.6394 N   0  0  0  0  0  0  0  0  0  0  0  0
    2.1141   -3.6832    0.1174 H   0  0  0  0  0  0  0  0  0  0  0  0
    2.2643   -1.4832   -1.4998 H   0  0  0  0  0  0  0  0  0  0  0  0
    0.9952   -4.9387   -1.6190 H   0  0  0  0  0  0  0  0  0  0  0  0
   -1.2009   -7.7492    1.8144 H   0  0  0  0  0  0  0  0  0  0  0  0
   -1.6183   -5.2979    1.7805 H   0  0  0  0  0  0  0  0  0  0  0  0
   -2.4899   -0.4453    1.9886 H   0  0  0  0  0  0  0  0  0  0  0  0
   -2.0419   -2.0230    1.5451 H   0  0  0  0  0  0  0  0  0  0  0  0
  1  2  1  0  0  0  0
  1  5  1  0  0  0  0
  2  3  2  0  0  0  0
  3  4  1  0  0  0  0
  3  6  1  0  0  0  0
  4  5  2  0  0  0  0
  4 18  1  0  0  0  0
  6  8  2  0  0  0  0
  6  7  1  0  0  0  0
  7  9  1  0  0  0  0
  7 19  1  0  0  0  0
  8 10  1  0  0  0  0
  9 20  1  0  0  0  0
 10 11  2  0  0  0  0
 10 15  1  0  0  0  0
 11 12  1  0  0  0  0
 11 21  1  0  0  0  0
 12 13  2  0  0  0  0
 12 17  1  0  0  0  0
 13 14  1  0  0  0  0
 13 16  1  0  0  0  0
 14 15  2  0  0  0  0
 14 22  1  0  0  0  0
 15 23  1  0  0  0  0
 18 24  1  0  0  0  0
 18 25  1  0  0  0  0
M  END
>  <Mol_ID>
4776

>  <Formula>
C9H7BrFN5O2

>  <MolWeight>
316.0865832

>  <Cat>
S6728

>  <Name>
IDO-IN-1

>  <Synonyms>
N/A

>  <Target>
IDO/TDO

>  <Form>
Free Base

>  <CAS>
914638-30-5

>  <URL>
http://www.selleck.cn/products/ido-in-1.html

$$$$
