IK-930
 OpenBabel08302521373D

 48 50  0  0  0  0  0  0  0  0999 V2000
    0.9945    0.1120    0.0658 N   0  0  0  0  0  0  0  0  0  0  0  0
    0.3041    0.8687   -0.9637 C   0  0  0  0  0  0  0  0  0  0  0  0
   -1.7228   -4.0586    3.4057 S   0  0  0  0  0  0  0  0  0  0  0  0
   -2.9818   -3.3390    4.2569 N   0  0  0  0  0  0  0  0  0  0  0  0
   -2.2870   -5.0064    2.4738 O   0  0  0  0  0  0  0  0  0  0  0  0
   -0.7551   -4.4610    4.4032 O   0  0  0  0  0  0  0  0  0  0  0  0
   -4.2768   -3.2206    3.5974 C   0  0  0  0  0  0  0  0  0  0  0  0
    4.8287    0.2109    4.6917 C   0  0  0  0  0  0  0  0  0  0  0  0
    2.6333    5.9537   -2.6251 C   0  0  0  0  0  0  0  0  0  0  0  0
    2.9032    6.0327   -3.9591 F   0  0  0  0  0  0  0  0  0  0  0  0
    1.7041    6.9223   -2.3803 F   0  0  0  0  0  0  0  0  0  0  0  0
    3.7684    6.3589   -1.9913 F   0  0  0  0  0  0  0  0  0  0  0  0
    0.7112   -1.0310    2.2238 C   0  0  0  0  0  0  0  0  0  0  0  0
    0.2447   -0.7393    0.9112 C   0  0  0  0  0  0  0  0  0  0  0  0
    0.0666   -2.0097    3.0031 C   0  0  0  0  0  0  0  0  0  0  0  0
   -0.8703   -1.4498    0.4313 C   0  0  0  0  0  0  0  0  0  0  0  0
   -1.0312   -2.7029    2.4911 C   0  0  0  0  0  0  0  0  0  0  0  0
   -1.5067   -2.4218    1.2112 C   0  0  0  0  0  0  0  0  0  0  0  0
    1.8406   -0.3004    2.7868 C   0  0  0  0  0  0  0  0  0  0  0  0
    2.1184    1.0174    2.4730 N   0  0  0  0  0  0  0  0  0  0  0  0
    2.7869   -0.7928    3.6601 C   0  0  0  0  0  0  0  0  0  0  0  0
    3.2054    1.3161    3.1471 C   0  0  0  0  0  0  0  0  0  0  0  0
    3.6482    0.2476    3.8687 N   0  0  0  0  0  0  0  0  0  0  0  0
    1.0762    2.1118   -1.3626 C   0  0  0  0  0  0  0  0  0  0  0  0
    1.4867    2.3076   -2.6887 C   0  0  0  0  0  0  0  0  0  0  0  0
    1.2910    3.1421   -0.4341 C   0  0  0  0  0  0  0  0  0  0  0  0
    2.0223    3.5350   -3.0952 C   0  0  0  0  0  0  0  0  0  0  0  0
    1.8319    4.3659   -0.8382 C   0  0  0  0  0  0  0  0  0  0  0  0
    2.1684    4.5886   -2.1814 C   0  0  0  0  0  0  0  0  0  0  0  0
    1.6035    0.7028    0.6462 H   0  0  0  0  0  0  0  0  0  0  0  0
    0.1519    0.2294   -1.8415 H   0  0  0  0  0  0  0  0  0  0  0  0
   -0.6842    1.2019   -0.6221 H   0  0  0  0  0  0  0  0  0  0  0  0
   -2.9726   -3.6123    5.2394 H   0  0  0  0  0  0  0  0  0  0  0  0
   -4.7477   -4.2025    3.4985 H   0  0  0  0  0  0  0  0  0  0  0  0
   -4.9308   -2.5936    4.2098 H   0  0  0  0  0  0  0  0  0  0  0  0
   -4.1827   -2.7512    2.6158 H   0  0  0  0  0  0  0  0  0  0  0  0
    4.5433   -0.1163    5.6944 H   0  0  0  0  0  0  0  0  0  0  0  0
    5.5355   -0.4926    4.2446 H   0  0  0  0  0  0  0  0  0  0  0  0
    5.2733    1.2079    4.7388 H   0  0  0  0  0  0  0  0  0  0  0  0
    0.4259   -2.2378    4.0043 H   0  0  0  0  0  0  0  0  0  0  0  0
   -1.2407   -1.2835   -0.5763 H   0  0  0  0  0  0  0  0  0  0  0  0
   -2.3462   -2.9759    0.7974 H   0  0  0  0  0  0  0  0  0  0  0  0
    2.9282   -1.7648    4.1118 H   0  0  0  0  0  0  0  0  0  0  0  0
    3.7043    2.2769    3.1415 H   0  0  0  0  0  0  0  0  0  0  0  0
    1.3594    1.5167   -3.4256 H   0  0  0  0  0  0  0  0  0  0  0  0
    1.0039    3.0047    0.6082 H   0  0  0  0  0  0  0  0  0  0  0  0
    2.2947    3.6737   -4.1409 H   0  0  0  0  0  0  0  0  0  0  0  0
    1.9558    5.1603   -0.1037 H   0  0  0  0  0  0  0  0  0  0  0  0
  1  2  1  0  0  0  0
  1 14  1  0  0  0  0
  1 30  1  0  0  0  0
  2 24  1  0  0  0  0
  2 31  1  0  0  0  0
  2 32  1  0  0  0  0
  3  4  1  0  0  0  0
  3  5  2  0  0  0  0
  3  6  2  0  0  0  0
  3 17  1  0  0  0  0
  4  7  1  0  0  0  0
  4 33  1  0  0  0  0
  7 34  1  0  0  0  0
  7 35  1  0  0  0  0
  7 36  1  0  0  0  0
  8 23  1  0  0  0  0
  8 37  1  0  0  0  0
  8 38  1  0  0  0  0
  8 39  1  0  0  0  0
  9 10  1  0  0  0  0
  9 11  1  0  0  0  0
  9 12  1  0  0  0  0
  9 29  1  0  0  0  0
 13 14  1  0  0  0  0
 13 15  2  0  0  0  0
 13 19  1  0  0  0  0
 14 16  2  0  0  0  0
 15 17  1  0  0  0  0
 15 40  1  0  0  0  0
 16 18  1  0  0  0  0
 16 41  1  0  0  0  0
 17 18  2  0  0  0  0
 18 42  1  0  0  0  0
 19 20  1  0  0  0  0
 19 21  2  0  0  0  0
 20 22  2  0  0  0  0
 21 23  1  0  0  0  0
 21 43  1  0  0  0  0
 22 23  1  0  0  0  0
 22 44  1  0  0  0  0
 24 25  2  0  0  0  0
 24 26  1  0  0  0  0
 25 27  1  0  0  0  0
 25 45  1  0  0  0  0
 26 28  2  0  0  0  0
 26 46  1  0  0  0  0
 27 29  2  0  0  0  0
 27 47  1  0  0  0  0
 28 29  1  0  0  0  0
 28 48  1  0  0  0  0
M  END
>  <Mol_ID>
7551

>  <Formula>
C19H19F3N4O2S

>  <MolWeight>
424.4399696

>  <Cat>
E1483

>  <Name>
IK-930

>  <Target>
TEAD

>  <Form>
free base

>  <CAS>
2563892-44-2

>  <URL>
https://www.selleckchem.com/products/ik-930.html

$$$$
