Iloperidone.cdx
 OpenBabel08302520003D

 58 61  0  0  0  0  0  0  0  0999 V2000
    0.8186   -6.2905   -0.0919 C   0  0  0  0  0  0  0  0  0  0  0  0
    1.3766   -5.0101    0.1344 C   0  0  0  0  0  0  0  0  0  0  0  0
    1.5646   -4.6306    1.4707 C   0  0  0  0  0  0  0  0  0  0  0  0
    1.3060   -5.5003    2.5384 C   0  0  0  0  0  0  0  0  0  0  0  0
    0.8337   -6.7879    2.3045 C   0  0  0  0  0  0  0  0  0  0  0  0
    0.5724   -7.1649    0.9967 C   0  0  0  0  0  0  0  0  0  0  0  0
    0.6360   -7.6804    3.4800 C   0  0  0  0  0  0  0  0  0  0  0  0
    0.8158   -9.1609    3.3106 C   0  0  0  0  0  0  0  0  0  0  0  0
    0.3592   -7.1861    4.5704 O   0  0  0  0  0  0  0  0  0  0  0  0
    0.4691   -6.8924   -1.2726 O   0  0  0  0  0  0  0  0  0  0  0  0
    0.2166   -6.0919   -2.4195 C   0  0  0  0  0  0  0  0  0  0  0  0
    1.7674   -4.2043   -0.9229 O   0  0  0  0  0  0  0  0  0  0  0  0
    2.1818   -2.8474   -0.6082 C   0  0  0  0  0  0  0  0  0  0  0  0
    2.8660   -2.1626   -1.8036 C   0  0  0  0  0  0  0  0  0  0  0  0
    3.0438   -0.6221   -1.6720 C   0  0  0  0  0  0  0  0  0  0  0  0
    3.7097   -0.1113   -0.4596 N   0  0  0  0  0  0  0  0  0  0  0  0
    5.1230   -0.4938   -0.3803 C   0  0  0  0  0  0  0  0  0  0  0  0
    5.6102   -0.2079    1.0303 C   0  0  0  0  0  0  0  0  0  0  0  0
    5.3582    1.2323    1.5451 C   0  0  0  0  0  0  0  0  0  0  0  0
    4.0279    1.8211    1.0511 C   0  0  0  0  0  0  0  0  0  0  0  0
    3.6616    1.3671   -0.3726 C   0  0  0  0  0  0  0  0  0  0  0  0
    5.5579    1.1657    3.0483 C   0  0  0  0  0  0  0  0  0  0  0  0
    6.8313    1.1692    3.4803 N   0  0  0  0  0  0  0  0  0  0  0  0
    6.8401    0.3874    4.6202 O   0  0  0  0  0  0  0  0  0  0  0  0
    5.5712    0.0119    4.9199 C   0  0  0  0  0  0  0  0  0  0  0  0
    4.6856    0.6433    4.0574 C   0  0  0  0  0  0  0  0  0  0  0  0
    5.2064   -0.9045    5.9010 C   0  0  0  0  0  0  0  0  0  0  0  0
    3.8392   -1.0982    6.0665 C   0  0  0  0  0  0  0  0  0  0  0  0
    2.8986   -0.3991    5.3143 C   0  0  0  0  0  0  0  0  0  0  0  0
    3.3058    0.4581    4.2789 C   0  0  0  0  0  0  0  0  0  0  0  0
    3.4149   -1.9889    6.9731 F   0  0  0  0  0  0  0  0  0  0  0  0
    1.9447   -3.6504    1.7479 H   0  0  0  0  0  0  0  0  0  0  0  0
    1.4753   -5.1506    3.5517 H   0  0  0  0  0  0  0  0  0  0  0  0
    0.1547   -8.1513    0.7874 H   0  0  0  0  0  0  0  0  0  0  0  0
    1.3151   -9.5549    4.2041 H   0  0  0  0  0  0  0  0  0  0  0  0
   -0.1579   -9.6411    3.1993 H   0  0  0  0  0  0  0  0  0  0  0  0
    1.4554   -9.3975    2.4572 H   0  0  0  0  0  0  0  0  0  0  0  0
   -0.1630   -5.0956   -2.1793 H   0  0  0  0  0  0  0  0  0  0  0  0
    1.1281   -6.0457   -3.0209 H   0  0  0  0  0  0  0  0  0  0  0  0
   -0.5479   -6.5999   -3.0082 H   0  0  0  0  0  0  0  0  0  0  0  0
    1.2910   -2.2834   -0.3103 H   0  0  0  0  0  0  0  0  0  0  0  0
    2.9209   -2.8532    0.1979 H   0  0  0  0  0  0  0  0  0  0  0  0
    3.8382   -2.6417   -1.9729 H   0  0  0  0  0  0  0  0  0  0  0  0
    2.2839   -2.3656   -2.7104 H   0  0  0  0  0  0  0  0  0  0  0  0
    3.5677   -0.2572   -2.5646 H   0  0  0  0  0  0  0  0  0  0  0  0
    2.0344   -0.1936   -1.7053 H   0  0  0  0  0  0  0  0  0  0  0  0
    5.7403    0.0381   -1.1166 H   0  0  0  0  0  0  0  0  0  0  0  0
    5.2571   -1.5640   -0.5623 H   0  0  0  0  0  0  0  0  0  0  0  0
    6.6816   -0.4298    1.0953 H   0  0  0  0  0  0  0  0  0  0  0  0
    5.1141   -0.9281    1.6983 H   0  0  0  0  0  0  0  0  0  0  0  0
    6.1496    1.8724    1.1261 H   0  0  0  0  0  0  0  0  0  0  0  0
    3.1996    1.5574    1.7095 H   0  0  0  0  0  0  0  0  0  0  0  0
    4.0878    2.9194    1.0763 H   0  0  0  0  0  0  0  0  0  0  0  0
    2.6576    1.7401   -0.6019 H   0  0  0  0  0  0  0  0  0  0  0  0
    4.3399    1.8320   -1.1053 H   0  0  0  0  0  0  0  0  0  0  0  0
    5.9380   -1.4588    6.4733 H   0  0  0  0  0  0  0  0  0  0  0  0
    1.8416   -0.5528    5.5167 H   0  0  0  0  0  0  0  0  0  0  0  0
    2.5554    0.9608    3.6775 H   0  0  0  0  0  0  0  0  0  0  0  0
  1  2  2  0  0  0  0
  1 10  1  0  0  0  0
  2  3  1  0  0  0  0
  2 12  1  0  0  0  0
  3  4  2  0  0  0  0
  3 32  1  0  0  0  0
  4  5  1  0  0  0  0
  4 33  1  0  0  0  0
  5  6  2  0  0  0  0
  5  7  1  0  0  0  0
  6  1  1  0  0  0  0
  6 34  1  0  0  0  0
  7  8  1  0  0  0  0
  7  9  2  0  0  0  0
  8 35  1  0  0  0  0
  8 36  1  0  0  0  0
  8 37  1  0  0  0  0
 10 11  1  0  0  0  0
 11 38  1  0  0  0  0
 11 39  1  0  0  0  0
 11 40  1  0  0  0  0
 12 13  1  0  0  0  0
 13 14  1  0  0  0  0
 13 41  1  0  0  0  0
 13 42  1  0  0  0  0
 14 15  1  0  0  0  0
 14 43  1  0  0  0  0
 14 44  1  0  0  0  0
 15 16  1  0  0  0  0
 15 45  1  0  0  0  0
 15 46  1  0  0  0  0
 16 17  1  0  0  0  0
 17 18  1  0  0  0  0
 17 47  1  0  0  0  0
 17 48  1  0  0  0  0
 18 19  1  0  0  0  0
 18 49  1  0  0  0  0
 18 50  1  0  0  0  0
 19 20  1  0  0  0  0
 19 22  1  0  0  0  0
 19 51  1  0  0  0  0
 20 21  1  0  0  0  0
 20 52  1  0  0  0  0
 20 53  1  0  0  0  0
 21 16  1  0  0  0  0
 21 54  1  0  0  0  0
 21 55  1  0  0  0  0
 22 23  2  0  0  0  0
 23 24  1  0  0  0  0
 24 25  1  0  0  0  0
 25 26  2  0  0  0  0
 25 27  1  0  0  0  0
 26 22  1  0  0  0  0
 27 28  2  0  0  0  0
 27 56  1  0  0  0  0
 28 29  1  0  0  0  0
 28 31  1  0  0  0  0
 29 30  2  0  0  0  0
 29 57  1  0  0  0  0
 30 26  1  0  0  0  0
 30 58  1  0  0  0  0
M  END
>  <Mol_ID>
283

>  <Formula>
C24H27FN2O4

>  <MolWeight>
426.4805832

>  <Cat>
S1483

>  <Name>
Iloperidone

>  <Synonyms>
HP873

>  <Target>
5-HT Receptor

>  <Form>
free base

>  <CAS>
133454-47-4

>  <URL>
http://selleckchem.com/products/Iloperidone(Fanapt).html

$$$$
