IM-54
 OpenBabel08302521353D

 47 49  0  0  0  0  0  0  0  0999 V2000
    1.2473    0.1254   -0.4941 N   0  0  0  0  0  0  0  0  0  0  0  0
    0.5992    0.5315    0.7629 C   0  0  0  0  0  0  0  0  0  0  0  0
    1.4068    1.6066    1.4906 C   0  0  0  0  0  0  0  0  0  0  0  0
    1.5468    2.9375    0.7473 C   0  0  0  0  0  0  0  0  0  0  0  0
    0.2147    3.6401    0.4828 C   0  0  0  0  0  0  0  0  0  0  0  0
    0.4324    4.9816   -0.2015 C   0  0  0  0  0  0  0  0  0  0  0  0
   -0.3039   -3.8936   -2.5864 O   0  0  0  0  0  0  0  0  0  0  0  0
    5.0547   -4.3424   -0.3809 C   0  0  0  0  0  0  0  0  0  0  0  0
   -0.7260    0.6322   -2.6747 O   0  0  0  0  0  0  0  0  0  0  0  0
   -1.8933   -1.7803   -3.8426 C   0  0  0  0  0  0  0  0  0  0  0  0
    1.7463   -2.9303   -0.6512 C   0  0  0  0  0  0  0  0  0  0  0  0
    1.6388   -3.5811    0.6117 C   0  0  0  0  0  0  0  0  0  0  0  0
    3.0136   -3.1475   -1.1413 C   0  0  0  0  0  0  0  0  0  0  0  0
    2.8756   -4.1932    0.8535 C   0  0  0  0  0  0  0  0  0  0  0  0
    0.6190   -3.7184    1.5751 C   0  0  0  0  0  0  0  0  0  0  0  0
    3.6839   -3.9092   -0.2258 N   0  0  0  0  0  0  0  0  0  0  0  0
    3.1260   -4.9377    2.0158 C   0  0  0  0  0  0  0  0  0  0  0  0
    0.8667   -4.4549    2.7406 C   0  0  0  0  0  0  0  0  0  0  0  0
    2.1020   -5.0555    2.9555 C   0  0  0  0  0  0  0  0  0  0  0  0
    0.7855   -2.1577   -1.3426 C   0  0  0  0  0  0  0  0  0  0  0  0
    0.5997   -0.8305   -1.2749 C   0  0  0  0  0  0  0  0  0  0  0  0
   -0.1859   -2.7164   -2.3089 C   0  0  0  0  0  0  0  0  0  0  0  0
   -0.4213   -0.4947   -2.3132 C   0  0  0  0  0  0  0  0  0  0  0  0
   -0.8898   -1.6729   -2.8160 N   0  0  0  0  0  0  0  0  0  0  0  0
    2.1774   -0.2249   -0.2576 H   0  0  0  0  0  0  0  0  0  0  0  0
   -0.4282    0.8639    0.5826 H   0  0  0  0  0  0  0  0  0  0  0  0
    0.5416   -0.3469    1.4195 H   0  0  0  0  0  0  0  0  0  0  0  0
    0.9405    1.7914    2.4664 H   0  0  0  0  0  0  0  0  0  0  0  0
    2.4141    1.2226    1.6973 H   0  0  0  0  0  0  0  0  0  0  0  0
    2.1788    3.5981    1.3557 H   0  0  0  0  0  0  0  0  0  0  0  0
    2.0784    2.7810   -0.1970 H   0  0  0  0  0  0  0  0  0  0  0  0
   -0.4233    3.0213   -0.1567 H   0  0  0  0  0  0  0  0  0  0  0  0
   -0.3211    3.7985    1.4259 H   0  0  0  0  0  0  0  0  0  0  0  0
    0.9680    4.8549   -1.1479 H   0  0  0  0  0  0  0  0  0  0  0  0
   -0.5281    5.4603   -0.4161 H   0  0  0  0  0  0  0  0  0  0  0  0
    1.0143    5.6566    0.4343 H   0  0  0  0  0  0  0  0  0  0  0  0
    5.6414   -3.9293    0.4439 H   0  0  0  0  0  0  0  0  0  0  0  0
    5.0774   -5.4354   -0.3679 H   0  0  0  0  0  0  0  0  0  0  0  0
    5.4497   -3.9756   -1.3333 H   0  0  0  0  0  0  0  0  0  0  0  0
   -2.8536   -1.4683   -3.4224 H   0  0  0  0  0  0  0  0  0  0  0  0
   -1.6426   -1.1076   -4.6696 H   0  0  0  0  0  0  0  0  0  0  0  0
   -1.9705   -2.8059   -4.2088 H   0  0  0  0  0  0  0  0  0  0  0  0
    3.4852   -2.8233   -2.0649 H   0  0  0  0  0  0  0  0  0  0  0  0
   -0.3546   -3.2622    1.4224 H   0  0  0  0  0  0  0  0  0  0  0  0
    4.0872   -5.4145    2.1878 H   0  0  0  0  0  0  0  0  0  0  0  0
    0.0775   -4.5641    3.4857 H   0  0  0  0  0  0  0  0  0  0  0  0
    2.2722   -5.6313    3.8624 H   0  0  0  0  0  0  0  0  0  0  0  0
  1  2  1  0  0  0  0
  1 21  1  0  0  0  0
  1 25  1  0  0  0  0
  2  3  1  0  0  0  0
  2 26  1  0  0  0  0
  2 27  1  0  0  0  0
  3  4  1  0  0  0  0
  3 28  1  0  0  0  0
  3 29  1  0  0  0  0
  4  5  1  0  0  0  0
  4 30  1  0  0  0  0
  4 31  1  0  0  0  0
  5  6  1  0  0  0  0
  5 32  1  0  0  0  0
  5 33  1  0  0  0  0
  6 34  1  0  0  0  0
  6 35  1  0  0  0  0
  6 36  1  0  0  0  0
  7 22  2  0  0  0  0
  8 16  1  0  0  0  0
  8 37  1  0  0  0  0
  8 38  1  0  0  0  0
  8 39  1  0  0  0  0
  9 23  2  0  0  0  0
 10 24  1  0  0  0  0
 10 40  1  0  0  0  0
 10 41  1  0  0  0  0
 10 42  1  0  0  0  0
 11 12  1  0  0  0  0
 11 13  2  0  0  0  0
 11 20  1  0  0  0  0
 12 14  2  0  0  0  0
 12 15  1  0  0  0  0
 13 16  1  0  0  0  0
 13 43  1  0  0  0  0
 14 16  1  0  0  0  0
 14 17  1  0  0  0  0
 15 18  2  0  0  0  0
 15 44  1  0  0  0  0
 17 19  2  0  0  0  0
 17 45  1  0  0  0  0
 18 19  1  0  0  0  0
 18 46  1  0  0  0  0
 19 47  1  0  0  0  0
 20 21  2  0  0  0  0
 20 22  1  0  0  0  0
 21 23  1  0  0  0  0
 22 24  1  0  0  0  0
 23 24  1  0  0  0  0
M  END
>  <Mol_ID>
6915

>  <Formula>
C19H23N3O2

>  <MolWeight>
325.40482

>  <Cat>
E2178

>  <Name>
IM-54

>  <Target>
Others

>  <Form>
Free base

>  <CAS>
861891-50-1

>  <URL>
https://www.selleckchem.com/products/im-54.html

$$$$
