Imaradenant (AZD4635)
 OpenBabel08302521353D

 33 35  0  0  0  0  0  0  0  0999 V2000
    1.0621    0.0821   -0.2456 N   0  0  0  0  0  0  0  0  0  0  0  0
   -2.0560   -5.2247   -6.4920 C   0  0  0  0  0  0  0  0  0  0  0  0
   -5.2991    3.0474   -5.1207 F   0  0  0  0  0  0  0  0  0  0  0  0
   -1.3070   -0.2142   -2.8831 C   0  0  0  0  0  0  0  0  0  0  0  0
   -0.8167   -1.3242   -3.5832 C   0  0  0  0  0  0  0  0  0  0  0  0
   -0.6949    0.2434   -1.7554 N   0  0  0  0  0  0  0  0  0  0  0  0
    0.2531   -1.9804   -3.0795 N   0  0  0  0  0  0  0  0  0  0  0  0
    0.3966   -0.4109   -1.3472 C   0  0  0  0  0  0  0  0  0  0  0  0
    0.8648   -1.5132   -1.9547 N   0  0  0  0  0  0  0  0  0  0  0  0
   -2.4560    0.6246   -3.3130 C   0  0  0  0  0  0  0  0  0  0  0  0
   -3.6363    0.0794   -3.8586 C   0  0  0  0  0  0  0  0  0  0  0  0
   -2.3545    2.0302   -3.2657 C   0  0  0  0  0  0  0  0  0  0  0  0
   -4.5879    0.8946   -4.4809 C   0  0  0  0  0  0  0  0  0  0  0  0
   -3.3246    2.8490   -3.8499 C   0  0  0  0  0  0  0  0  0  0  0  0
   -4.4115    2.2711   -4.4862 C   0  0  0  0  0  0  0  0  0  0  0  0
   -1.3166   -1.8681   -4.8616 C   0  0  0  0  0  0  0  0  0  0  0  0
   -1.4318   -3.2549   -5.0519 C   0  0  0  0  0  0  0  0  0  0  0  0
   -1.6945   -1.0468   -5.9333 C   0  0  0  0  0  0  0  0  0  0  0  0
   -1.9624   -3.7513   -6.2401 C   0  0  0  0  0  0  0  0  0  0  0  0
   -2.2648   -1.6176   -7.0575 C   0  0  0  0  0  0  0  0  0  0  0  0
   -2.4130   -2.9437   -7.2269 N   0  0  0  0  0  0  0  0  0  0  0  0
    0.4346    0.6184    0.3465 H   0  0  0  0  0  0  0  0  0  0  0  0
    1.6246   -0.6369    0.1953 H   0  0  0  0  0  0  0  0  0  0  0  0
   -3.1044   -5.5222   -6.5920 H   0  0  0  0  0  0  0  0  0  0  0  0
   -1.5272   -5.4724   -7.4175 H   0  0  0  0  0  0  0  0  0  0  0  0
   -1.6066   -5.8067   -5.6805 H   0  0  0  0  0  0  0  0  0  0  0  0
   -3.8001   -0.9971   -3.8712 H   0  0  0  0  0  0  0  0  0  0  0  0
   -1.4871    2.4980   -2.7999 H   0  0  0  0  0  0  0  0  0  0  0  0
   -5.4461    0.4581   -4.9845 H   0  0  0  0  0  0  0  0  0  0  0  0
   -3.2188    3.9287   -3.8368 H   0  0  0  0  0  0  0  0  0  0  0  0
   -1.1059   -3.9437   -4.2759 H   0  0  0  0  0  0  0  0  0  0  0  0
   -1.5882    0.0325   -5.8942 H   0  0  0  0  0  0  0  0  0  0  0  0
   -2.6351   -1.0000   -7.8708 H   0  0  0  0  0  0  0  0  0  0  0  0
  1  8  1  0  0  0  0
  1 22  1  0  0  0  0
  1 23  1  0  0  0  0
  2 19  1  0  0  0  0
  2 24  1  0  0  0  0
  2 25  1  0  0  0  0
  2 26  1  0  0  0  0
  3 15  1  0  0  0  0
  4  5  1  0  0  0  0
  4  6  2  0  0  0  0
  4 10  1  0  0  0  0
  5  7  2  0  0  0  0
  5 16  1  0  0  0  0
  6  8  1  0  0  0  0
  7  9  1  0  0  0  0
  8  9  2  0  0  0  0
 10 11  2  0  0  0  0
 10 12  1  0  0  0  0
 11 13  1  0  0  0  0
 11 27  1  0  0  0  0
 12 14  2  0  0  0  0
 12 28  1  0  0  0  0
 13 15  2  0  0  0  0
 13 29  1  0  0  0  0
 14 15  1  0  0  0  0
 14 30  1  0  0  0  0
 16 17  2  0  0  0  0
 16 18  1  0  0  0  0
 17 19  1  0  0  0  0
 17 31  1  0  0  0  0
 18 20  2  0  0  0  0
 18 32  1  0  0  0  0
 19 21  2  0  0  0  0
 20 21  1  0  0  0  0
 20 33  1  0  0  0  0
M  END
>  <Mol_ID>
6730

>  <Formula>
C15H11ClFN5

>  <MolWeight>
315.7327432

>  <Cat>
S8720

>  <Name>
Imaradenant (AZD4635)

>  <Synonyms>
HTL1071

>  <Target>
Adenosine Receptor

>  <Form>
Free base

>  <CAS>
1321514-06-0

>  <URL>
http://www.selleckchem.com/products/adz-4635.html

$$$$
