Imeglimin (EMD 387008) Hydrochloride
 OpenBabel08302521313D

 24 24  0  0  0  0  0  0  0  0999 V2000
   -0.4052    1.3075   -0.0765 N   0  0  0  0  0  0  0  0  0  0  0  0
    0.8586    1.0483   -0.0738 C   0  0  0  0  0  0  0  0  0  0  0  0
    1.2961   -0.2327    0.0186 N   0  0  0  0  0  0  0  0  0  0  0  0
    0.4556   -1.2811    0.0193 C   0  0  0  0  0  0  0  0  0  0  0  0
   -0.8221   -1.1846    0.0059 N   0  0  0  0  0  0  0  0  0  0  0  0
   -1.3383    0.1888    0.1106 C   0  0  1  0  0  0  0  0  0  0  0  0
    1.8177    2.0347   -0.1894 N   0  0  0  0  0  0  0  0  0  0  0  0
    1.0598   -2.4996    0.0101 N   0  0  0  0  0  0  0  0  0  0  0  0
   -1.9603    0.3352    1.4986 C   0  0  0  0  0  0  0  0  0  0  0  0
    1.4183    3.4324   -0.3401 C   0  0  0  0  0  0  0  0  0  0  0  0
    3.2478    1.7971   -0.2964 C   0  0  0  0  0  0  0  0  0  0  0  0
    2.2457   -0.4031    0.2899 H   0  0  0  0  0  0  0  0  0  0  0  0
   -2.1293    0.2988   -0.6407 H   0  0  0  0  0  0  0  0  0  0  0  0
    0.3769   -3.2198   -0.2133 H   0  0  0  0  0  0  0  0  0  0  0  0
    1.8755   -2.5748   -0.5853 H   0  0  0  0  0  0  0  0  0  0  0  0
   -2.4147    1.3227    1.6280 H   0  0  0  0  0  0  0  0  0  0  0  0
   -2.7297   -0.4259    1.6647 H   0  0  0  0  0  0  0  0  0  0  0  0
   -1.2004    0.2136    2.2800 H   0  0  0  0  0  0  0  0  0  0  0  0
    1.8836    4.0384    0.4445 H   0  0  0  0  0  0  0  0  0  0  0  0
    1.7434    3.8146   -1.3138 H   0  0  0  0  0  0  0  0  0  0  0  0
    0.3372    3.5884   -0.2712 H   0  0  0  0  0  0  0  0  0  0  0  0
    3.6244    1.3240    0.6164 H   0  0  0  0  0  0  0  0  0  0  0  0
    3.4703    1.1511   -1.1522 H   0  0  0  0  0  0  0  0  0  0  0  0
    3.8079    2.7290   -0.4335 H   0  0  0  0  0  0  0  0  0  0  0  0
  1  2  2  0  0  0  0
  1  6  1  0  0  0  0
  2  3  1  0  0  0  0
  2  7  1  0  0  0  0
  3  4  1  0  0  0  0
  3 12  1  0  0  0  0
  4  5  2  0  0  0  0
  4  8  1  0  0  0  0
  5  6  1  0  0  0  0
  6  9  1  0  0  0  0
  6 13  1  6  0  0  0
  7 10  1  0  0  0  0
  7 11  1  0  0  0  0
  8 14  1  0  0  0  0
  8 15  1  0  0  0  0
  9 16  1  0  0  0  0
  9 17  1  0  0  0  0
  9 18  1  0  0  0  0
 10 19  1  0  0  0  0
 10 20  1  0  0  0  0
 10 21  1  0  0  0  0
 11 22  1  0  0  0  0
 11 23  1  0  0  0  0
 11 24  1  0  0  0  0
M  END
>  <Mol_ID>
6045

>  <Formula>
C6H14ClN5

>  <MolWeight>
191.66186

>  <Cat>
S9925

>  <Name>
Imeglimin (EMD 387008) Hydrochloride

>  <Synonyms>
PXL 008 Hydrochloride, RVT-1501 Hydrochloride, IMEG Hydrochloride

>  <Target>
Others

>  <Form>
Hydrochloride

>  <CAS>
775351-61-6

>  <URL>
http://www.selleckchem.com/products/imeglimin-emd-387008-hydrochloride.html

$$$$
