Imidazol-1-yl-acetic acid
 OpenBabel08302521453D

 15 15  0  0  0  0  0  0  0  0999 V2000
    0.9075    0.1011   -0.0369 C   0  0  0  0  0  0  0  0  0  0  0  0
   -0.1335    0.1307    1.0553 C   0  0  0  0  0  0  0  0  0  0  0  0
   -1.2971    0.7684    0.8072 O   0  0  0  0  0  0  0  0  0  0  0  0
    0.0665   -0.4069    2.1405 O   0  0  0  0  0  0  0  0  0  0  0  0
    0.5348    0.7736   -1.2657 N   0  0  0  0  0  0  0  0  0  0  0  0
   -0.1194    0.2156   -2.3285 C   0  0  0  0  0  0  0  0  0  0  0  0
    0.7851    2.0808   -1.5683 C   0  0  0  0  0  0  0  0  0  0  0  0
   -0.2592    1.2410   -3.2347 C   0  0  0  0  0  0  0  0  0  0  0  0
    0.2848    2.3977   -2.7401 N   0  0  0  0  0  0  0  0  0  0  0  0
    1.1238   -0.9415   -0.2909 H   0  0  0  0  0  0  0  0  0  0  0  0
    1.8191    0.5817    0.3341 H   0  0  0  0  0  0  0  0  0  0  0  0
   -1.4125    1.1738   -0.0748 H   0  0  0  0  0  0  0  0  0  0  0  0
   -0.4154   -0.8245   -2.3635 H   0  0  0  0  0  0  0  0  0  0  0  0
    1.3200    2.7558   -0.9107 H   0  0  0  0  0  0  0  0  0  0  0  0
   -0.7195    1.2089   -4.2145 H   0  0  0  0  0  0  0  0  0  0  0  0
  1  2  1  0  0  0  0
  1  5  1  0  0  0  0
  1 10  1  0  0  0  0
  1 11  1  0  0  0  0
  2  3  1  0  0  0  0
  2  4  2  0  0  0  0
  3 12  1  0  0  0  0
  5  6  1  0  0  0  0
  5  7  1  0  0  0  0
  6  8  2  0  0  0  0
  6 13  1  0  0  0  0
  7  9  2  0  0  0  0
  7 14  1  0  0  0  0
  8  9  1  0  0  0  0
  8 15  1  0  0  0  0
M  END
>  <Mol_ID>
9502

>  <Formula>
C5H6N2O2

>  <MolWeight>
126.11334

>  <Cat>
E4169

>  <Name>
Imidazol-1-yl-acetic acid

>  <Synonyms>
1H-imidazole-1-acetic acid

>  <Target>
Others

>  <Form>
free base

>  <CAS>
22884-10-2

>  <URL>
https://www.selleckchem.com/products/imidazol-1-yl-acetic-acid.html

$$$$
