IMipraMine hydrochloride.cdx
 OpenBabel08302519573D

 45 47  0  0  0  0  0  0  0  0999 V2000
    1.3907   -0.5345   -0.3511 C   0  0  0  0  0  0  0  0  0  0  0  0
    0.1448   -1.0398   -0.7982 N   0  0  0  0  0  0  0  0  0  0  0  0
   -1.0985   -0.6544   -0.2563 C   0  0  0  0  0  0  0  0  0  0  0  0
   -1.5361    0.6773   -0.2488 C   0  0  0  0  0  0  0  0  0  0  0  0
   -0.6432    1.7490   -0.8061 C   0  0  0  0  0  0  0  0  0  0  0  0
    0.6017    1.9145    0.0654 C   0  0  0  0  0  0  0  0  0  0  0  0
    1.6049    0.7777    0.1190 C   0  0  0  0  0  0  0  0  0  0  0  0
    2.8514    1.0971    0.7063 C   0  0  0  0  0  0  0  0  0  0  0  0
    3.8749    0.1573    0.8084 C   0  0  0  0  0  0  0  0  0  0  0  0
    3.6808   -1.1214    0.3104 C   0  0  0  0  0  0  0  0  0  0  0  0
    2.4555   -1.4577   -0.2634 C   0  0  0  0  0  0  0  0  0  0  0  0
   -1.8830   -1.6235    0.3897 C   0  0  0  0  0  0  0  0  0  0  0  0
   -3.0865   -1.2837    1.0085 C   0  0  0  0  0  0  0  0  0  0  0  0
   -3.5317    0.0341    0.9781 C   0  0  0  0  0  0  0  0  0  0  0  0
   -2.7601    1.0126    0.3529 C   0  0  0  0  0  0  0  0  0  0  0  0
    0.1134   -1.4045   -2.2440 C   0  0  0  0  0  0  0  0  0  0  0  0
   -0.2196   -2.8906   -2.4258 C   0  0  0  0  0  0  0  0  0  0  0  0
   -0.3004   -3.3569   -3.8901 C   0  0  0  0  0  0  0  0  0  0  0  0
    0.9307   -3.2574   -4.6964 N   0  0  0  0  0  0  0  0  0  0  0  0
    2.0212   -4.0678   -4.1463 C   0  0  0  0  0  0  0  0  0  0  0  0
    0.6545   -3.7080   -6.0690 C   0  0  0  0  0  0  0  0  0  0  0  0
   -0.3799    1.5258   -1.8460 H   0  0  0  0  0  0  0  0  0  0  0  0
   -1.1830    2.7043   -0.8282 H   0  0  0  0  0  0  0  0  0  0  0  0
    0.2991    2.1433    1.0966 H   0  0  0  0  0  0  0  0  0  0  0  0
    1.1314    2.8003   -0.3131 H   0  0  0  0  0  0  0  0  0  0  0  0
    3.0223    2.0970    1.1023 H   0  0  0  0  0  0  0  0  0  0  0  0
    4.8152    0.4240    1.2823 H   0  0  0  0  0  0  0  0  0  0  0  0
    4.4648   -1.8681    0.3939 H   0  0  0  0  0  0  0  0  0  0  0  0
    2.3034   -2.4807   -0.5978 H   0  0  0  0  0  0  0  0  0  0  0  0
   -1.5228   -2.6483    0.4513 H   0  0  0  0  0  0  0  0  0  0  0  0
   -3.6620   -2.0428    1.5309 H   0  0  0  0  0  0  0  0  0  0  0  0
   -4.4655    0.3046    1.4640 H   0  0  0  0  0  0  0  0  0  0  0  0
   -3.1023    2.0447    0.3680 H   0  0  0  0  0  0  0  0  0  0  0  0
   -0.6265   -0.7886   -2.7771 H   0  0  0  0  0  0  0  0  0  0  0  0
    1.0763   -1.1905   -2.7227 H   0  0  0  0  0  0  0  0  0  0  0  0
    0.4934   -3.5079   -1.8672 H   0  0  0  0  0  0  0  0  0  0  0  0
   -1.1983   -3.0919   -1.9764 H   0  0  0  0  0  0  0  0  0  0  0  0
   -0.6524   -4.3974   -3.8872 H   0  0  0  0  0  0  0  0  0  0  0  0
   -1.0858   -2.7660   -4.3804 H   0  0  0  0  0  0  0  0  0  0  0  0
    1.7517   -5.1250   -4.0615 H   0  0  0  0  0  0  0  0  0  0  0  0
    2.9114   -3.9932   -4.7846 H   0  0  0  0  0  0  0  0  0  0  0  0
    2.3283   -3.7008   -3.1623 H   0  0  0  0  0  0  0  0  0  0  0  0
    0.2946   -4.7441   -6.1001 H   0  0  0  0  0  0  0  0  0  0  0  0
   -0.0975   -3.0680   -6.5440 H   0  0  0  0  0  0  0  0  0  0  0  0
    1.5557   -3.6458   -6.6906 H   0  0  0  0  0  0  0  0  0  0  0  0
  1  2  1  0  0  0  0
  2  3  1  0  0  0  0
  2 16  1  0  0  0  0
  3  4  2  0  0  0  0
  3 12  1  0  0  0  0
  4  5  1  0  0  0  0
  5  6  1  0  0  0  0
  5 22  1  0  0  0  0
  5 23  1  0  0  0  0
  6  7  1  0  0  0  0
  6 24  1  0  0  0  0
  6 25  1  0  0  0  0
  7  1  2  0  0  0  0
  7  8  1  0  0  0  0
  8  9  2  0  0  0  0
  8 26  1  0  0  0  0
  9 10  1  0  0  0  0
  9 27  1  0  0  0  0
 10 11  2  0  0  0  0
 10 28  1  0  0  0  0
 11  1  1  0  0  0  0
 11 29  1  0  0  0  0
 12 13  2  0  0  0  0
 12 30  1  0  0  0  0
 13 14  1  0  0  0  0
 13 31  1  0  0  0  0
 14 15  2  0  0  0  0
 14 32  1  0  0  0  0
 15  4  1  0  0  0  0
 15 33  1  0  0  0  0
 16 17  1  0  0  0  0
 16 34  1  0  0  0  0
 16 35  1  0  0  0  0
 17 18  1  0  0  0  0
 17 36  1  0  0  0  0
 17 37  1  0  0  0  0
 18 19  1  0  0  0  0
 18 38  1  0  0  0  0
 18 39  1  0  0  0  0
 19 20  1  0  0  0  0
 19 21  1  0  0  0  0
 20 40  1  0  0  0  0
 20 41  1  0  0  0  0
 20 42  1  0  0  0  0
 21 43  1  0  0  0  0
 21 44  1  0  0  0  0
 21 45  1  0  0  0  0
M  END
>  <Mol_ID>
2291

>  <Formula>
C19H25ClN2

>  <MolWeight>
316.8682

>  <Cat>
S4377

>  <Name>
Imipramine HCl

>  <Synonyms>
Melipramine HCl,G 22355

>  <Target>
5-HT Receptor,Serotonin Transporter

>  <Form>
hydrochloride

>  <CAS>
113-52-0

>  <URL>
http://www.selleckchem.com/products/imipramine-hcl.html

$$$$
