INCB024360.cdx
 OpenBabel08302519583D

 25 26  0  0  0  0  0  0  0  0999 V2000
   -1.9737    0.0136   -0.2361 C   0  0  0  0  0  0  0  0  0  0  0  0
   -1.4932    1.1251   -0.9481 C   0  0  0  0  0  0  0  0  0  0  0  0
   -0.1254    1.4060   -1.0058 C   0  0  0  0  0  0  0  0  0  0  0  0
    0.7691    0.5790   -0.3415 C   0  0  0  0  0  0  0  0  0  0  0  0
    0.3244   -0.5455    0.3406 C   0  0  0  0  0  0  0  0  0  0  0  0
   -1.0446   -0.8404    0.3720 C   0  0  0  0  0  0  0  0  0  0  0  0
    2.0760    0.8701   -0.3586 F   0  0  0  0  0  0  0  0  0  0  0  0
   -3.3620   -0.2023   -0.1828 N   0  0  0  0  0  0  0  0  0  0  0  0
   -4.0238   -1.4042   -0.0297 C   0  0  0  0  0  0  0  0  0  0  0  0
   -3.5633   -2.5352   -0.4949 N   0  0  0  0  0  0  0  0  0  0  0  0
   -5.3108   -1.2201    0.6549 C   0  0  0  0  0  0  0  0  0  0  0  0
   -6.0664   -2.0830    1.4949 C   0  0  0  0  0  0  0  0  0  0  0  0
   -7.1636   -1.4538    1.9087 N   0  0  0  0  0  0  0  0  0  0  0  0
   -7.0834   -0.1821    1.3691 O   0  0  0  0  0  0  0  0  0  0  0  0
   -5.9299   -0.0246    0.6135 N   0  0  0  0  0  0  0  0  0  0  0  0
   -5.7442   -3.3407    1.8659 N   0  0  0  0  0  0  0  0  0  0  0  0
   -4.4589   -3.6038   -0.4385 O   0  0  0  0  0  0  0  0  0  0  0  0
   -2.1849    1.7732   -1.4818 H   0  0  0  0  0  0  0  0  0  0  0  0
    0.2429    2.2649   -1.5571 H   0  0  0  0  0  0  0  0  0  0  0  0
    1.0397   -1.1810    0.8506 H   0  0  0  0  0  0  0  0  0  0  0  0
   -1.3746   -1.7199    0.9189 H   0  0  0  0  0  0  0  0  0  0  0  0
   -3.9067    0.6365   -0.0008 H   0  0  0  0  0  0  0  0  0  0  0  0
   -6.5046   -3.9322    2.1848 H   0  0  0  0  0  0  0  0  0  0  0  0
   -5.0833   -3.8373    1.2677 H   0  0  0  0  0  0  0  0  0  0  0  0
   -4.0333   -4.2610   -1.0242 H   0  0  0  0  0  0  0  0  0  0  0  0
  1  2  2  0  0  0  0
  1  8  1  0  0  0  0
  2  3  1  0  0  0  0
  2 18  1  0  0  0  0
  3  4  2  0  0  0  0
  3 19  1  0  0  0  0
  4  5  1  0  0  0  0
  4  7  1  0  0  0  0
  5  6  2  0  0  0  0
  5 20  1  0  0  0  0
  6  1  1  0  0  0  0
  6 21  1  0  0  0  0
  8  9  1  0  0  0  0
  8 22  1  0  0  0  0
  9 10  2  0  0  0  0
  9 11  1  0  0  0  0
 10 17  1  0  0  0  0
 11 12  1  0  0  0  0
 12 13  2  0  0  0  0
 12 16  1  0  0  0  0
 13 14  1  0  0  0  0
 14 15  1  0  0  0  0
 15 11  2  0  0  0  0
 16 23  1  0  0  0  0
 16 24  1  0  0  0  0
 17 25  1  0  0  0  0
M  END
>  <Mol_ID>
2466

>  <Formula>
C9H7ClFN5O2

>  <MolWeight>
271.6355832

>  <Cat>
S7587

>  <Name>
Epacadostat (INCB024360) analogue

>  <Synonyms>
INCB14943

>  <Target>
IDO/TDO

>  <Form>
free base

>  <CAS>
914471-09-3

>  <URL>
http://selleckchem.com/products/incb024360.html

$$$$
