Indirubin-3¡ä-oxime
 OpenBabel08302521313D

 32 35  0  0  0  0  0  0  0  0999 V2000
   -0.4708    5.9424   -0.0755 O   0  0  0  0  0  0  0  0  0  0  0  0
    1.6351    4.2479   -0.0786 N   0  0  0  0  0  0  0  0  0  0  0  0
    0.1341    8.1822   -0.0747 N   0  0  0  0  0  0  0  0  0  0  0  0
    4.8736    5.7667   -0.0787 N   0  0  0  0  0  0  0  0  0  0  0  0
    1.8810    6.6703   -0.0771 C   0  0  0  0  0  0  0  0  0  0  0  0
    2.3775    5.4188   -0.0780 C   0  0  0  0  0  0  0  0  0  0  0  0
    2.4303    8.0392   -0.0773 C   0  0  0  0  0  0  0  0  0  0  0  0
    3.8036    3.4877   -0.0806 C   0  0  0  0  0  0  0  0  0  0  0  0
    3.8478    4.9791   -0.0791 C   0  0  0  0  0  0  0  0  0  0  0  0
    2.4497    3.1316   -0.0809 C   0  0  0  0  0  0  0  0  0  0  0  0
    1.3220    8.9008   -0.0761 C   0  0  0  0  0  0  0  0  0  0  0  0
    0.3718    6.8233   -0.0757 C   0  0  0  0  0  0  0  0  0  0  0  0
    3.6956    8.5970   -0.0789 C   0  0  0  0  0  0  0  0  0  0  0  0
    1.4244   10.2807   -0.0764 C   0  0  0  0  0  0  0  0  0  0  0  0
    4.7993    2.5241   -0.0818 C   0  0  0  0  0  0  0  0  0  0  0  0
    2.0634    1.8045   -0.0830 C   0  0  0  0  0  0  0  0  0  0  0  0
    3.8301    9.9938   -0.0793 C   0  0  0  0  0  0  0  0  0  0  0  0
    2.7042   10.8293   -0.0781 C   0  0  0  0  0  0  0  0  0  0  0  0
    4.4163    1.1796   -0.0839 C   0  0  0  0  0  0  0  0  0  0  0  0
    3.0587    0.8226   -0.0847 C   0  0  0  0  0  0  0  0  0  0  0  0
    6.0958    5.0982   -0.0804 O   0  0  0  0  0  0  0  0  0  0  0  0
    0.6211    4.2629   -0.0787 H   0  0  0  0  0  0  0  0  0  0  0  0
   -0.7945    8.5760   -0.0743 H   0  0  0  0  0  0  0  0  0  0  0  0
    4.5945    7.9985   -0.0801 H   0  0  0  0  0  0  0  0  0  0  0  0
    0.5478   10.9181   -0.0757 H   0  0  0  0  0  0  0  0  0  0  0  0
    5.8501    2.7842   -0.0812 H   0  0  0  0  0  0  0  0  0  0  0  0
    1.0150    1.5266   -0.0836 H   0  0  0  0  0  0  0  0  0  0  0  0
    4.8258   10.4331   -0.0806 H   0  0  0  0  0  0  0  0  0  0  0  0
    2.8347   11.9089   -0.0786 H   0  0  0  0  0  0  0  0  0  0  0  0
    5.1782    0.4031   -0.0850 H   0  0  0  0  0  0  0  0  0  0  0  0
    2.7800   -0.2288   -0.0867 H   0  0  0  0  0  0  0  0  0  0  0  0
    6.7374    5.8319   -0.0807 H   0  0  0  0  0  0  0  0  0  0  0  0
  1 12  2  0  0  0  0
  2  6  1  0  0  0  0
  2 10  1  0  0  0  0
  2 22  1  0  0  0  0
  3 11  1  0  0  0  0
  3 12  1  0  0  0  0
  3 23  1  0  0  0  0
  4  9  2  0  0  0  0
  4 21  1  0  0  0  0
  5  6  2  0  0  0  0
  5  7  1  0  0  0  0
  5 12  1  0  0  0  0
  6  9  1  0  0  0  0
  7 11  2  0  0  0  0
  7 13  1  0  0  0  0
  8  9  1  0  0  0  0
  8 10  2  0  0  0  0
  8 15  1  0  0  0  0
 10 16  1  0  0  0  0
 11 14  1  0  0  0  0
 13 17  2  0  0  0  0
 13 24  1  0  0  0  0
 14 18  2  0  0  0  0
 14 25  1  0  0  0  0
 15 19  2  0  0  0  0
 15 26  1  0  0  0  0
 16 20  2  0  0  0  0
 16 27  1  0  0  0  0
 17 18  1  0  0  0  0
 17 28  1  0  0  0  0
 18 29  1  0  0  0  0
 19 20  1  0  0  0  0
 19 30  1  0  0  0  0
 20 31  1  0  0  0  0
 21 32  1  0  0  0  0
M  END
>  <Mol_ID>
6063

>  <Formula>
C16H11N3O2

>  <MolWeight>
277.27744

>  <Cat>
E0072

>  <Name>
Indirubin-3¡ä-oxime

>  <Synonyms>
IDR3O, I3O

>  <Target>
CDK,GSK-3,JNK,Wnt/beta-catenin

>  <Form>
Free Base

>  <CAS>
667463-82-3

>  <URL>
http://www.selleckchem.com/products/indirubin-3-oxime.html

$$$$
