Indibulin
 OpenBabel08302521243D

 44 47  0  0  0  0  0  0  0  0999 V2000
    1.1950    0.5707    0.4253 O   0  0  0  0  0  0  0  0  0  0  0  0
    3.4705   -2.0056    0.7778 O   0  0  0  0  0  0  0  0  0  0  0  0
    4.1220   -0.3072   -3.0294 N   0  0  0  0  0  0  0  0  0  0  0  0
    2.1165   -0.9601    2.3589 N   0  0  0  0  0  0  0  0  0  0  0  0
    2.8694   -3.2784    5.8032 N   0  0  0  0  0  0  0  0  0  0  0  0
    3.3884    0.8290   -3.3076 C   0  0  0  0  0  0  0  0  0  0  0  0
    2.4387    0.9626   -2.2854 C   0  0  0  0  0  0  0  0  0  0  0  0
    5.2538   -0.8244   -3.8009 C   0  0  0  0  0  0  0  0  0  0  0  0
    2.7182   -0.0357   -1.2921 C   0  0  0  0  0  0  0  0  0  0  0  0
    3.7017   -0.8441   -1.8369 C   0  0  0  0  0  0  0  0  0  0  0  0
    3.4761    1.7551   -4.3601 C   0  0  0  0  0  0  0  0  0  0  0  0
    4.8110   -1.6841   -4.9592 C   0  0  0  0  0  0  0  0  0  0  0  0
    1.4957    2.0108   -2.3787 C   0  0  0  0  0  0  0  0  0  0  0  0
    2.1173   -0.1569    0.0437 C   0  0  0  0  0  0  0  0  0  0  0  0
    2.5378    2.7875   -4.4196 C   0  0  0  0  0  0  0  0  0  0  0  0
    1.5470    2.9012   -3.4530 C   0  0  0  0  0  0  0  0  0  0  0  0
    4.5655   -1.1143   -6.2173 C   0  0  0  0  0  0  0  0  0  0  0  0
    4.5988   -3.0609   -4.7948 C   0  0  0  0  0  0  0  0  0  0  0  0
    2.6611   -1.1484    1.0949 C   0  0  0  0  0  0  0  0  0  0  0  0
    4.0550   -1.8820   -7.2638 C   0  0  0  0  0  0  0  0  0  0  0  0
    4.1045   -3.8329   -5.8495 C   0  0  0  0  0  0  0  0  0  0  0  0
    3.8125   -3.2390   -7.0758 C   0  0  0  0  0  0  0  0  0  0  0  0
    2.4140   -1.7251    3.5026 C   0  0  0  0  0  0  0  0  0  0  0  0
    3.5039   -2.5930    3.5819 C   0  0  0  0  0  0  0  0  0  0  0  0
    1.5763   -1.6175    4.6133 C   0  0  0  0  0  0  0  0  0  0  0  0
    3.6859   -3.3417    4.7338 C   0  0  0  0  0  0  0  0  0  0  0  0
    1.8348   -2.4163    5.7204 C   0  0  0  0  0  0  0  0  0  0  0  0
    1.3684   -0.2721    2.4101 H   0  0  0  0  0  0  0  0  0  0  0  0
    5.8494    0.0314   -4.1377 H   0  0  0  0  0  0  0  0  0  0  0  0
    5.8905   -1.3992   -3.1164 H   0  0  0  0  0  0  0  0  0  0  0  0
    4.1753   -1.7411   -1.4572 H   0  0  0  0  0  0  0  0  0  0  0  0
    4.2476    1.6873   -5.1178 H   0  0  0  0  0  0  0  0  0  0  0  0
    0.7264    2.1263   -1.6195 H   0  0  0  0  0  0  0  0  0  0  0  0
    2.5816    3.5061   -5.2354 H   0  0  0  0  0  0  0  0  0  0  0  0
    0.8103    3.6997   -3.5240 H   0  0  0  0  0  0  0  0  0  0  0  0
    4.7538   -0.0599   -6.3943 H   0  0  0  0  0  0  0  0  0  0  0  0
    4.8049   -3.5428   -3.8412 H   0  0  0  0  0  0  0  0  0  0  0  0
    3.8348   -1.4150   -8.2202 H   0  0  0  0  0  0  0  0  0  0  0  0
    3.9306   -4.8968   -5.7099 H   0  0  0  0  0  0  0  0  0  0  0  0
    3.3943   -3.8322   -7.8846 H   0  0  0  0  0  0  0  0  0  0  0  0
    4.2273   -2.7016    2.7831 H   0  0  0  0  0  0  0  0  0  0  0  0
    0.7177   -0.9566    4.6237 H   0  0  0  0  0  0  0  0  0  0  0  0
    4.5201   -4.0324    4.8202 H   0  0  0  0  0  0  0  0  0  0  0  0
    1.1895   -2.3924    6.5938 H   0  0  0  0  0  0  0  0  0  0  0  0
  1 14  2  0  0  0  0
  2 19  2  0  0  0  0
  3  6  1  0  0  0  0
  3  8  1  0  0  0  0
  3 10  1  0  0  0  0
  4 19  1  0  0  0  0
  4 23  1  0  0  0  0
  4 28  1  0  0  0  0
  5 26  2  0  0  0  0
  5 27  1  0  0  0  0
  6  7  2  0  0  0  0
  6 11  1  0  0  0  0
  7  9  1  0  0  0  0
  7 13  1  0  0  0  0
  8 12  1  0  0  0  0
  8 29  1  0  0  0  0
  8 30  1  0  0  0  0
  9 10  2  0  0  0  0
  9 14  1  0  0  0  0
 10 31  1  0  0  0  0
 11 15  2  0  0  0  0
 11 32  1  0  0  0  0
 12 17  2  0  0  0  0
 12 18  1  0  0  0  0
 13 16  2  0  0  0  0
 13 33  1  0  0  0  0
 14 19  1  0  0  0  0
 15 16  1  0  0  0  0
 15 34  1  0  0  0  0
 16 35  1  0  0  0  0
 17 20  1  0  0  0  0
 17 36  1  0  0  0  0
 18 21  2  0  0  0  0
 18 37  1  0  0  0  0
 20 22  2  0  0  0  0
 20 38  1  0  0  0  0
 21 22  1  0  0  0  0
 21 39  1  0  0  0  0
 22 40  1  0  0  0  0
 23 24  2  0  0  0  0
 23 25  1  0  0  0  0
 24 26  1  0  0  0  0
 24 41  1  0  0  0  0
 25 27  2  0  0  0  0
 25 42  1  0  0  0  0
 26 43  1  0  0  0  0
 27 44  1  0  0  0  0
M  END
>  <Mol_ID>
5070

>  <Formula>
C22H16ClN3O2

>  <MolWeight>
389.83434

>  <Cat>
S0444

>  <Name>
Indibulin

>  <Synonyms>
ZIO 301, D 24851, Zybulin

>  <Target>
Apoptosis related,Microtubule Associated

>  <Form>
free base

>  <CAS>
204205-90-3

>  <URL>
http://www.selleckchem.com/products/Indibulin.html

$$$$
