Indole
 OpenBabel08302521263D

 16 17  0  0  0  0  0  0  0  0999 V2000
   -0.2395   -0.7541   -0.0067 C   0  0  0  0  0  0  0  0  0  0  0  0
   -0.2506    0.6409   -0.0134 C   0  0  0  0  0  0  0  0  0  0  0  0
   -1.5954   -1.1837   -0.0123 C   0  0  0  0  0  0  0  0  0  0  0  0
    1.0001   -1.4224   -0.0001 C   0  0  0  0  0  0  0  0  0  0  0  0
   -1.5698    1.0349   -0.0181 N   0  0  0  0  0  0  0  0  0  0  0  0
    0.9222    1.4057   -0.0159 C   0  0  0  0  0  0  0  0  0  0  0  0
   -2.3914   -0.0613   -0.0247 C   0  0  0  0  0  0  0  0  0  0  0  0
    2.1822   -0.6728   -0.0074 C   0  0  0  0  0  0  0  0  0  0  0  0
    2.1409    0.7200   -0.0162 C   0  0  0  0  0  0  0  0  0  0  0  0
   -1.9471   -2.2069   -0.0126 H   0  0  0  0  0  0  0  0  0  0  0  0
    1.0401   -2.5071    0.0073 H   0  0  0  0  0  0  0  0  0  0  0  0
   -1.8796    1.9964   -0.0220 H   0  0  0  0  0  0  0  0  0  0  0  0
    0.8940    2.4901   -0.0213 H   0  0  0  0  0  0  0  0  0  0  0  0
   -3.4671    0.0517   -0.0378 H   0  0  0  0  0  0  0  0  0  0  0  0
    3.1412   -1.1850   -0.0080 H   0  0  0  0  0  0  0  0  0  0  0  0
    3.0711    1.2839   -0.0241 H   0  0  0  0  0  0  0  0  0  0  0  0
  1  2  2  0  0  0  0
  1  3  1  0  0  0  0
  1  4  1  0  0  0  0
  2  5  1  0  0  0  0
  2  6  1  0  0  0  0
  3  7  2  0  0  0  0
  3 10  1  0  0  0  0
  4  8  2  0  0  0  0
  4 11  1  0  0  0  0
  5  7  1  0  0  0  0
  5 12  1  0  0  0  0
  6  9  2  0  0  0  0
  6 13  1  0  0  0  0
  7 14  1  0  0  0  0
  8  9  1  0  0  0  0
  8 15  1  0  0  0  0
  9 16  1  0  0  0  0
M  END
>  <Mol_ID>
5259

>  <Formula>
C8H7N

>  <MolWeight>
117.14788

>  <Cat>
S6358

>  <Name>
Indole

>  <Synonyms>
2,3-Benzopyrrole

>  <Target>
Others

>  <Form>
Free Base

>  <CAS>
120-72-9

>  <URL>
https://www.selleckchem.com/products/indole.html

$$$$
