INDY
 OpenBabel08302521383D

 29 30  0  0  0  0  0  0  0  0999 V2000
    1.1441   -0.1169   -0.0444 C   0  0  0  0  0  0  0  0  0  0  0  0
    2.6202    0.2458    0.0384 C   0  0  0  0  0  0  0  0  0  0  0  0
    1.3052   -3.0574    0.8304 C   0  0  0  0  0  0  0  0  0  0  0  0
    1.4284   -4.5093    1.1636 C   0  0  0  0  0  0  0  0  0  0  0  0
    2.4890   -5.2888    0.4253 C   0  0  0  0  0  0  0  0  0  0  0  0
    0.6928   -5.0801    1.9624 O   0  0  0  0  0  0  0  0  0  0  0  0
   -0.8279    3.4124    3.3234 O   0  0  0  0  0  0  0  0  0  0  0  0
    0.1482    0.0805    2.2386 C   0  0  0  0  0  0  0  0  0  0  0  0
   -0.1763   -0.6457    3.4042 C   0  0  0  0  0  0  0  0  0  0  0  0
    0.6816   -0.7161    1.2028 N   0  0  0  0  0  0  0  0  0  0  0  0
   -0.0820    1.4526    2.2310 C   0  0  0  0  0  0  0  0  0  0  0  0
    0.1837   -2.3841    3.2337 S   0  0  0  0  0  0  0  0  0  0  0  0
   -0.7037   -0.0436    4.5395 C   0  0  0  0  0  0  0  0  0  0  0  0
    0.7853   -2.0707    1.5837 C   0  0  0  0  0  0  0  0  0  0  0  0
   -0.6163    2.0617    3.3699 C   0  0  0  0  0  0  0  0  0  0  0  0
   -0.9233    1.3325    4.5207 C   0  0  0  0  0  0  0  0  0  0  0  0
    0.9910   -0.8164   -0.8757 H   0  0  0  0  0  0  0  0  0  0  0  0
    0.5587    0.7669   -0.3176 H   0  0  0  0  0  0  0  0  0  0  0  0
    2.7929    1.0332    0.7780 H   0  0  0  0  0  0  0  0  0  0  0  0
    3.2301   -0.6185    0.3209 H   0  0  0  0  0  0  0  0  0  0  0  0
    2.9755    0.6071   -0.9320 H   0  0  0  0  0  0  0  0  0  0  0  0
    1.7104   -2.8145   -0.1456 H   0  0  0  0  0  0  0  0  0  0  0  0
    3.1901   -5.7134    1.1482 H   0  0  0  0  0  0  0  0  0  0  0  0
    2.0093   -6.0883   -0.1445 H   0  0  0  0  0  0  0  0  0  0  0  0
    3.0481   -4.6557   -0.2693 H   0  0  0  0  0  0  0  0  0  0  0  0
   -1.2108    3.6970    4.1699 H   0  0  0  0  0  0  0  0  0  0  0  0
    0.1365    2.0693    1.3689 H   0  0  0  0  0  0  0  0  0  0  0  0
   -0.9357   -0.6310    5.4217 H   0  0  0  0  0  0  0  0  0  0  0  0
   -1.3307    1.8154    5.4039 H   0  0  0  0  0  0  0  0  0  0  0  0
  1  2  1  0  0  0  0
  1 10  1  0  0  0  0
  1 17  1  0  0  0  0
  1 18  1  0  0  0  0
  2 19  1  0  0  0  0
  2 20  1  0  0  0  0
  2 21  1  0  0  0  0
  3  4  1  0  0  0  0
  3 14  2  0  0  0  0
  3 22  1  0  0  0  0
  4  5  1  0  0  0  0
  4  6  2  0  0  0  0
  5 23  1  0  0  0  0
  5 24  1  0  0  0  0
  5 25  1  0  0  0  0
  7 15  1  0  0  0  0
  7 26  1  0  0  0  0
  8  9  2  0  0  0  0
  8 10  1  0  0  0  0
  8 11  1  0  0  0  0
  9 12  1  0  0  0  0
  9 13  1  0  0  0  0
 10 14  1  0  0  0  0
 11 15  2  0  0  0  0
 11 27  1  0  0  0  0
 12 14  1  0  0  0  0
 13 16  2  0  0  0  0
 13 28  1  0  0  0  0
 15 16  1  0  0  0  0
 16 29  1  0  0  0  0
M  END
>  <Mol_ID>
7696

>  <Formula>
C12H13NO2S

>  <MolWeight>
235.30212

>  <Cat>
S8395

>  <Name>
INDY

>  <Target>
DYRK

>  <Form>
free base

>  <CAS>
1169755-45-6

>  <URL>
https://www.selleckchem.com/products/indy.html

$$$$
