INF39.cdx
 OpenBabel08302520423D

 28 28  0  0  0  0  0  0  0  0999 V2000
    1.4397   -0.2102   -0.6062 C   0  0  0  0  0  0  0  0  0  0  0  0
    0.6855   -1.3413   -0.3005 C   0  0  0  0  0  0  0  0  0  0  0  0
   -0.6332   -1.2048    0.1285 C   0  0  0  0  0  0  0  0  0  0  0  0
   -1.1919    0.0647    0.2775 C   0  0  0  0  0  0  0  0  0  0  0  0
   -0.4330    1.2106    0.0030 C   0  0  0  0  0  0  0  0  0  0  0  0
    0.8825    1.0604   -0.4596 C   0  0  0  0  0  0  0  0  0  0  0  0
   -0.9829    2.5870    0.3069 C   0  0  0  0  0  0  0  0  0  0  0  0
   -0.5803    3.0542    1.6877 C   0  0  0  0  0  0  0  0  0  0  0  0
   -1.4773    2.6137    2.7960 C   0  0  0  0  0  0  0  0  0  0  0  0
    0.5184    3.8049    1.8932 C   0  0  0  0  0  0  0  0  0  0  0  0
   -1.0231    3.0332    4.0064 O   0  0  0  0  0  0  0  0  0  0  0  0
   -1.7766    2.5635    5.1360 C   0  0  0  0  0  0  0  0  0  0  0  0
   -2.9992    3.4298    5.3770 C   0  0  0  0  0  0  0  0  0  0  0  0
   -2.4912    1.9572    2.6170 O   0  0  0  0  0  0  0  0  0  0  0  0
    2.4684   -0.3158   -0.9394 H   0  0  0  0  0  0  0  0  0  0  0  0
    1.1282   -2.3296   -0.3884 H   0  0  0  0  0  0  0  0  0  0  0  0
   -1.2224   -2.0859    0.3695 H   0  0  0  0  0  0  0  0  0  0  0  0
   -2.2142    0.1564    0.6409 H   0  0  0  0  0  0  0  0  0  0  0  0
    1.4903    1.9345   -0.6810 H   0  0  0  0  0  0  0  0  0  0  0  0
   -0.6226    3.2912   -0.4557 H   0  0  0  0  0  0  0  0  0  0  0  0
   -2.0746    2.5955    0.1928 H   0  0  0  0  0  0  0  0  0  0  0  0
    1.1593    4.0955    1.0655 H   0  0  0  0  0  0  0  0  0  0  0  0
    0.8314    4.1228    2.8826 H   0  0  0  0  0  0  0  0  0  0  0  0
   -2.0539    1.5103    5.0022 H   0  0  0  0  0  0  0  0  0  0  0  0
   -1.1165    2.6084    6.0091 H   0  0  0  0  0  0  0  0  0  0  0  0
   -3.6139    3.5185    4.4761 H   0  0  0  0  0  0  0  0  0  0  0  0
   -3.6138    3.0125    6.1798 H   0  0  0  0  0  0  0  0  0  0  0  0
   -2.6989    4.4440    5.6582 H   0  0  0  0  0  0  0  0  0  0  0  0
  1  2  2  0  0  0  0
  1 15  1  0  0  0  0
  2  3  1  0  0  0  0
  2 16  1  0  0  0  0
  3  4  2  0  0  0  0
  3 17  1  0  0  0  0
  4  5  1  0  0  0  0
  4 18  1  0  0  0  0
  5  6  2  0  0  0  0
  5  7  1  0  0  0  0
  6  1  1  0  0  0  0
  6 19  1  0  0  0  0
  7  8  1  0  0  0  0
  7 20  1  0  0  0  0
  7 21  1  0  0  0  0
  8  9  1  0  0  0  0
  8 10  2  0  0  0  0
  9 11  1  0  0  0  0
  9 14  2  0  0  0  0
 10 22  1  0  0  0  0
 10 23  1  0  0  0  0
 11 12  1  0  0  0  0
 12 13  1  0  0  0  0
 12 24  1  0  0  0  0
 12 25  1  0  0  0  0
 13 26  1  0  0  0  0
 13 27  1  0  0  0  0
 13 28  1  0  0  0  0
M  END
>  <Mol_ID>
4002

>  <Formula>
C12H13ClO2

>  <MolWeight>
224.68342

>  <Cat>
S8559

>  <Name>
INF39

>  <Synonyms>
N/A

>  <Target>
NLRP3

>  <Form>
free base

>  <CAS>
866028-26-4

>  <URL>
http://selleckchem.com/products/inf39.html

$$$$
