¦Â-Ionone
 OpenBabel08302521363D

 34 34  0  0  0  0  0  0  0  0999 V2000
    0.8638    0.1137   -0.1694 C   0  0  0  0  0  0  0  0  0  0  0  0
    2.1349    0.5223   -0.3014 C   0  0  0  0  0  0  0  0  0  0  0  0
    3.1359   -0.0091   -1.2749 C   0  0  0  0  0  0  0  0  0  0  0  0
    4.5809    0.1265   -0.8723 C   0  0  0  0  0  0  0  0  0  0  0  0
    2.8201   -0.5341   -2.3379 O   0  0  0  0  0  0  0  0  0  0  0  0
   -1.9239    0.5627   -1.1634 C   0  0  0  0  0  0  0  0  0  0  0  0
   -0.3648    0.2310   -3.0868 C   0  0  0  0  0  0  0  0  0  0  0  0
    1.6251   -2.7781    0.0702 C   0  0  0  0  0  0  0  0  0  0  0  0
    0.1777   -0.9306   -0.9228 C   0  0  0  0  0  0  0  0  0  0  0  0
   -0.9724   -0.4528   -1.8412 C   0  0  0  0  0  0  0  0  0  0  0  0
    0.5342   -2.2342   -0.8218 C   0  0  0  0  0  0  0  0  0  0  0  0
   -1.8616   -1.6455   -2.2847 C   0  0  0  0  0  0  0  0  0  0  0  0
   -0.1295   -3.3273   -1.6330 C   0  0  0  0  0  0  0  0  0  0  0  0
   -1.0405   -2.8363   -2.7492 C   0  0  0  0  0  0  0  0  0  0  0  0
    0.2493    0.6063    0.5834 H   0  0  0  0  0  0  0  0  0  0  0  0
    2.5113    1.2893    0.3674 H   0  0  0  0  0  0  0  0  0  0  0  0
    4.8046   -0.5696   -0.0596 H   0  0  0  0  0  0  0  0  0  0  0  0
    5.2191   -0.1108   -1.7280 H   0  0  0  0  0  0  0  0  0  0  0  0
    4.7941    1.1528   -0.5638 H   0  0  0  0  0  0  0  0  0  0  0  0
   -1.4153    1.4983   -0.9054 H   0  0  0  0  0  0  0  0  0  0  0  0
   -2.7502    0.8277   -1.8333 H   0  0  0  0  0  0  0  0  0  0  0  0
   -2.3618    0.1509   -0.2468 H   0  0  0  0  0  0  0  0  0  0  0  0
   -1.1467    0.5373   -3.7909 H   0  0  0  0  0  0  0  0  0  0  0  0
    0.1973    1.1323   -2.8154 H   0  0  0  0  0  0  0  0  0  0  0  0
    0.3225   -0.4312   -3.6236 H   0  0  0  0  0  0  0  0  0  0  0  0
    1.2153   -3.5470    0.7352 H   0  0  0  0  0  0  0  0  0  0  0  0
    2.4167   -3.2359   -0.5374 H   0  0  0  0  0  0  0  0  0  0  0  0
    2.0947   -2.0284    0.7107 H   0  0  0  0  0  0  0  0  0  0  0  0
   -2.4984   -1.9675   -1.4483 H   0  0  0  0  0  0  0  0  0  0  0  0
   -2.5427   -1.3380   -3.0882 H   0  0  0  0  0  0  0  0  0  0  0  0
    0.6366   -3.9728   -2.0794 H   0  0  0  0  0  0  0  0  0  0  0  0
   -0.7116   -3.9542   -0.9454 H   0  0  0  0  0  0  0  0  0  0  0  0
   -1.7052   -3.6499   -3.0616 H   0  0  0  0  0  0  0  0  0  0  0  0
   -0.4444   -2.5695   -3.6290 H   0  0  0  0  0  0  0  0  0  0  0  0
  1  2  2  3  0  0  0
  1  9  1  0  0  0  0
  1 15  1  0  0  0  0
  2  3  1  0  0  0  0
  2 16  1  0  0  0  0
  3  4  1  0  0  0  0
  3  5  2  0  0  0  0
  4 17  1  0  0  0  0
  4 18  1  0  0  0  0
  4 19  1  0  0  0  0
  6 10  1  0  0  0  0
  6 20  1  0  0  0  0
  6 21  1  0  0  0  0
  6 22  1  0  0  0  0
  7 10  1  0  0  0  0
  7 23  1  0  0  0  0
  7 24  1  0  0  0  0
  7 25  1  0  0  0  0
  8 11  1  0  0  0  0
  8 26  1  0  0  0  0
  8 27  1  0  0  0  0
  8 28  1  0  0  0  0
  9 10  1  0  0  0  0
  9 11  2  0  0  0  0
 10 12  1  0  0  0  0
 11 13  1  0  0  0  0
 12 14  1  0  0  0  0
 12 29  1  0  0  0  0
 12 30  1  0  0  0  0
 13 14  1  0  0  0  0
 13 31  1  0  0  0  0
 13 32  1  0  0  0  0
 14 33  1  0  0  0  0
 14 34  1  0  0  0  0
M  END
>  <Mol_ID>
7194

>  <Formula>
C13H20O

>  <MolWeight>
192.2973

>  <Cat>
E4194

>  <Name>
¦Â-Ionone

>  <Synonyms>
¦Â-lonone

>  <Target>
Others

>  <Form>
free base

>  <CAS>
14901-07-6

>  <URL>
https://www.selleckchem.com/products/beta-ionone.html

$$$$
