IOSAT (potassium iodide).cdx
 OpenBabel08302519503D

  1  0  0  0  0  0  0  0  0  0999 V2000
    0.9191   -0.0360   -0.0464 I   0  5  0  0  0  0  0  0  0  0  0  0
M  CHG  1   1  -1
M  END
>  <Mol_ID>
176

>  <Formula>
IK

>  <MolWeight>
166.00277

>  <Cat>
S1897

>  <Name>
Potassium Iodide

>  <Synonyms>
N/A

>  <Target>
Others

>  <Form>
Inorganic salt

>  <CAS>
7681-11-0

>  <URL>
http://selleckchem.com/products/Potassium-iodide.html

$$$$
