IOX2.cdx
 OpenBabel08302522013D

 42 44  0  0  0  0  0  0  0  0999 V2000
    1.7080    2.7915   -0.3322 C   0  0  0  0  0  0  0  0  0  0  0  0
   -0.5530    2.0649    0.3475 N   0  0  0  0  0  0  0  0  0  0  0  0
    0.2326    2.7121   -0.6950 C   0  0  0  0  0  0  0  0  0  0  0  0
    2.5082    3.5448   -0.8692 O   0  0  0  0  0  0  0  0  0  0  0  0
    2.0956    1.8515    0.5655 O   0  0  0  0  0  0  0  0  0  0  0  0
   -1.8605    1.7097    0.1147 C   0  0  0  0  0  0  0  0  0  0  0  0
   -2.4001    1.8452   -0.9821 O   0  0  0  0  0  0  0  0  0  0  0  0
   -2.5687    0.2307    3.5870 N   0  0  0  0  0  0  0  0  0  0  0  0
   -2.0142    1.0816    2.6396 C   0  0  0  0  0  0  0  0  0  0  0  0
   -2.5788    1.0709    1.2617 C   0  0  0  0  0  0  0  0  0  0  0  0
   -3.7283    0.4147    1.0158 C   0  0  0  0  0  0  0  0  0  0  0  0
   -4.3444   -0.4285    2.0527 C   0  0  0  0  0  0  0  0  0  0  0  0
   -5.5261   -1.1429    1.7918 C   0  0  0  0  0  0  0  0  0  0  0  0
   -6.0395   -2.0417    2.7242 C   0  0  0  0  0  0  0  0  0  0  0  0
   -5.3623   -2.2556    3.9173 C   0  0  0  0  0  0  0  0  0  0  0  0
   -4.2007   -1.5334    4.2006 C   0  0  0  0  0  0  0  0  0  0  0  0
   -3.7028   -0.5846    3.2930 C   0  0  0  0  0  0  0  0  0  0  0  0
   -1.9936    0.2642    4.9333 C   0  0  0  0  0  0  0  0  0  0  0  0
   -0.7919   -0.6331    5.1553 C   0  0  0  0  0  0  0  0  0  0  0  0
   -0.2363   -1.4428    4.1540 C   0  0  0  0  0  0  0  0  0  0  0  0
    0.8995   -2.2149    4.4091 C   0  0  0  0  0  0  0  0  0  0  0  0
    1.4915   -2.1951    5.6693 C   0  0  0  0  0  0  0  0  0  0  0  0
    0.9491   -1.4035    6.6775 C   0  0  0  0  0  0  0  0  0  0  0  0
   -0.1829   -0.6269    6.4226 C   0  0  0  0  0  0  0  0  0  0  0  0
   -1.0566    1.8235    2.8789 O   0  0  0  0  0  0  0  0  0  0  0  0
   -4.3589    0.3747   -0.2178 O   0  0  0  0  0  0  0  0  0  0  0  0
   -0.3289    2.2760    1.3258 H   0  0  0  0  0  0  0  0  0  0  0  0
   -0.1674    3.7167   -0.8517 H   0  0  0  0  0  0  0  0  0  0  0  0
    0.1372    2.1244   -1.6164 H   0  0  0  0  0  0  0  0  0  0  0  0
    1.3525    1.2611    0.8040 H   0  0  0  0  0  0  0  0  0  0  0  0
   -6.0483   -1.0169    0.8451 H   0  0  0  0  0  0  0  0  0  0  0  0
   -6.9520   -2.5903    2.5048 H   0  0  0  0  0  0  0  0  0  0  0  0
   -5.7360   -2.9859    4.6310 H   0  0  0  0  0  0  0  0  0  0  0  0
   -3.6941   -1.7579    5.1344 H   0  0  0  0  0  0  0  0  0  0  0  0
   -1.6770    1.2958    5.1415 H   0  0  0  0  0  0  0  0  0  0  0  0
   -2.7640    0.0488    5.6824 H   0  0  0  0  0  0  0  0  0  0  0  0
   -0.6704   -1.4819    3.1590 H   0  0  0  0  0  0  0  0  0  0  0  0
    1.3253   -2.8297    3.6202 H   0  0  0  0  0  0  0  0  0  0  0  0
    2.3775   -2.7937    5.8639 H   0  0  0  0  0  0  0  0  0  0  0  0
    1.4124   -1.3833    7.6608 H   0  0  0  0  0  0  0  0  0  0  0  0
   -0.5831   -0.0046    7.2209 H   0  0  0  0  0  0  0  0  0  0  0  0
   -3.8707    0.9560   -0.8439 H   0  0  0  0  0  0  0  0  0  0  0  0
  1  3  1  0  0  0  0
  1  4  2  0  0  0  0
  1  5  1  0  0  0  0
  2  3  1  0  0  0  0
  2  6  1  0  0  0  0
  2 27  1  0  0  0  0
  3 28  1  0  0  0  0
  3 29  1  0  0  0  0
  5 30  1  0  0  0  0
  6  7  2  0  0  0  0
  6 10  1  0  0  0  0
  8  9  1  0  0  0  0
  8 17  1  0  0  0  0
  8 18  1  0  0  0  0
  9 10  1  0  0  0  0
  9 25  2  0  0  0  0
 10 11  2  0  0  0  0
 11 12  1  0  0  0  0
 11 26  1  0  0  0  0
 12 13  1  0  0  0  0
 12 17  2  0  0  0  0
 13 14  2  0  0  0  0
 13 31  1  0  0  0  0
 14 15  1  0  0  0  0
 14 32  1  0  0  0  0
 15 16  2  0  0  0  0
 15 33  1  0  0  0  0
 16 17  1  0  0  0  0
 16 34  1  0  0  0  0
 18 19  1  0  0  0  0
 18 35  1  0  0  0  0
 18 36  1  0  0  0  0
 19 20  2  0  0  0  0
 19 24  1  0  0  0  0
 20 21  1  0  0  0  0
 20 37  1  0  0  0  0
 21 22  2  0  0  0  0
 21 38  1  0  0  0  0
 22 23  1  0  0  0  0
 22 39  1  0  0  0  0
 23 24  2  0  0  0  0
 23 40  1  0  0  0  0
 24 41  1  0  0  0  0
 26 42  1  0  0  0  0
M  END
>  <Mol_ID>
1094

>  <Formula>
C19H16N2O5

>  <MolWeight>
352.34074

>  <Cat>
S2919

>  <Name>
IOX2

>  <Synonyms>
JICL38

>  <Target>
HIF

>  <Form>
free base

>  <CAS>
931398-72-0

>  <URL>
http://selleckchem.com/products/iox2.html

$$$$
