IPI-145.cdx
 OpenBabel08302519553D

 47 51  0  0  0  0  0  0  0  0999 V2000
    4.8129   -4.5066    5.5492 C   0  0  0  0  0  0  0  0  0  0  0  0
    5.2181   -3.1808    5.6935 C   0  0  0  0  0  0  0  0  0  0  0  0
    5.0866   -2.2945    4.6254 C   0  0  0  0  0  0  0  0  0  0  0  0
    4.5540   -2.7360    3.4084 C   0  0  0  0  0  0  0  0  0  0  0  0
    4.1474   -4.0558    3.2654 C   0  0  0  0  0  0  0  0  0  0  0  0
    4.2705   -4.9449    4.3401 C   0  0  0  0  0  0  0  0  0  0  0  0
    4.4440   -1.8292    2.2799 C   0  0  0  0  0  0  0  0  0  0  0  0
    3.9012   -2.1978    1.1000 C   0  0  0  0  0  0  0  0  0  0  0  0
    3.4787   -3.5319    0.9379 N   0  0  0  0  0  0  0  0  0  0  0  0
    3.5679   -4.5002    1.9649 C   0  0  0  0  0  0  0  0  0  0  0  0
    3.8001   -1.1540   -0.0519 C   0  0  2  0  0  0  0  0  0  0  0  0
    4.9774   -1.2260   -1.0152 C   0  0  0  0  0  0  0  0  0  0  0  0
    1.7267   -3.5585   -0.8459 C   0  0  0  0  0  0  0  0  0  0  0  0
    2.9295   -4.0383   -0.3039 C   0  0  0  0  0  0  0  0  0  0  0  0
    1.1981   -4.1273   -2.0162 C   0  0  0  0  0  0  0  0  0  0  0  0
    1.8620   -5.1808   -2.6400 C   0  0  0  0  0  0  0  0  0  0  0  0
    3.0511   -5.6721   -2.1077 C   0  0  0  0  0  0  0  0  0  0  0  0
    3.5730   -5.1042   -0.9466 C   0  0  0  0  0  0  0  0  0  0  0  0
    3.2067   -5.6694    1.8903 O   0  0  0  0  0  0  0  0  0  0  0  0
    3.8442    0.2139    0.4897 N   0  0  0  0  0  0  0  0  0  0  0  0
    2.9435    1.1438   -0.0461 C   0  0  0  0  0  0  0  0  0  0  0  0
    2.2675    0.9192   -1.1927 N   0  0  0  0  0  0  0  0  0  0  0  0
    0.9610    1.2444   -1.1969 C   0  0  0  0  0  0  0  0  0  0  0  0
    0.2182    1.6900   -0.1581 N   0  0  0  0  0  0  0  0  0  0  0  0
    0.9937    2.0354    0.8730 C   0  0  0  0  0  0  0  0  0  0  0  0
    2.3821    1.9951    0.9165 C   0  0  0  0  0  0  0  0  0  0  0  0
    0.6589    2.1966    2.1889 N   0  0  0  0  0  0  0  0  0  0  0  0
    1.7994    2.4745    2.9001 C   0  0  0  0  0  0  0  0  0  0  0  0
    2.8722    2.3571    2.1563 N   0  0  0  0  0  0  0  0  0  0  0  0
    4.9214   -5.2009    6.3780 H   0  0  0  0  0  0  0  0  0  0  0  0
    5.6408   -2.8378    6.6346 H   0  0  0  0  0  0  0  0  0  0  0  0
    5.4053   -1.2617    4.7524 H   0  0  0  0  0  0  0  0  0  0  0  0
    3.9527   -5.9795    4.2328 H   0  0  0  0  0  0  0  0  0  0  0  0
    4.8530   -0.8382    2.4510 H   0  0  0  0  0  0  0  0  0  0  0  0
    2.8606   -1.3172   -0.5831 H   0  0  0  0  0  0  0  0  0  0  0  0
    4.7366   -0.6754   -1.9326 H   0  0  0  0  0  0  0  0  0  0  0  0
    5.8605   -0.7380   -0.5809 H   0  0  0  0  0  0  0  0  0  0  0  0
    5.2414   -2.2499   -1.2819 H   0  0  0  0  0  0  0  0  0  0  0  0
    1.1656   -2.7758   -0.3421 H   0  0  0  0  0  0  0  0  0  0  0  0
    0.2588   -3.7591   -2.4203 H   0  0  0  0  0  0  0  0  0  0  0  0
    1.4428   -5.6307   -3.5381 H   0  0  0  0  0  0  0  0  0  0  0  0
    3.5545   -6.5072   -2.5864 H   0  0  0  0  0  0  0  0  0  0  0  0
    4.4884   -5.5242   -0.5254 H   0  0  0  0  0  0  0  0  0  0  0  0
    3.5984    0.2360    1.4827 H   0  0  0  0  0  0  0  0  0  0  0  0
    0.4299    1.0512   -2.1255 H   0  0  0  0  0  0  0  0  0  0  0  0
   -0.2224    1.9159    2.5829 H   0  0  0  0  0  0  0  0  0  0  0  0
    1.8002    2.6676    3.9650 H   0  0  0  0  0  0  0  0  0  0  0  0
  1  2  2  0  0  0  0
  1 30  1  0  0  0  0
  2  3  1  0  0  0  0
  2 31  1  0  0  0  0
  3  4  2  0  0  0  0
  3 32  1  0  0  0  0
  4  5  1  0  0  0  0
  4  7  1  0  0  0  0
  5  6  2  0  0  0  0
  6  1  1  0  0  0  0
  6 33  1  0  0  0  0
  7  8  2  0  0  0  0
  7 34  1  0  0  0  0
  8  9  1  0  0  0  0
  9 10  1  0  0  0  0
 10  5  1  0  0  0  0
 10 19  2  0  0  0  0
 11 20  1  0  0  0  0
 11 35  1  6  0  0  0
 11 12  1  0  0  0  0
 11  8  1  0  0  0  0
 12 36  1  0  0  0  0
 12 37  1  0  0  0  0
 12 38  1  0  0  0  0
 13 14  2  0  0  0  0
 13 15  1  0  0  0  0
 13 39  1  0  0  0  0
 14  9  1  0  0  0  0
 15 16  2  0  0  0  0
 15 40  1  0  0  0  0
 16 17  1  0  0  0  0
 16 41  1  0  0  0  0
 17 18  2  0  0  0  0
 17 42  1  0  0  0  0
 18 14  1  0  0  0  0
 18 43  1  0  0  0  0
 20 21  1  0  0  0  0
 20 44  1  0  0  0  0
 21 22  2  0  0  0  0
 22 23  1  0  0  0  0
 23 24  2  0  0  0  0
 23 45  1  0  0  0  0
 24 25  1  0  0  0  0
 25 26  2  0  0  0  0
 25 27  1  0  0  0  0
 26 21  1  0  0  0  0
 27 28  1  0  0  0  0
 27 46  1  0  0  0  0
 28 29  2  0  0  0  0
 28 47  1  0  0  0  0
 29 26  1  0  0  0  0
M  END
>  <Mol_ID>
2134

>  <Formula>
C22H17ClN6O

>  <MolWeight>
416.86298

>  <Cat>
S7028

>  <Name>
Duvelisib (IPI-145)

>  <Synonyms>
INK1197

>  <Target>
PI3K

>  <Form>
free base

>  <CAS>
1201438-56-3

>  <URL>
http://selleckchem.com/products/ipi-145-ink1197.html

$$$$
