Ipragliflozin(ASP1941).cdx
 OpenBabel08302520433D

 49 52  0  0  0  0  0  0  0  0999 V2000
   -1.2021    1.6610   -0.8285 C   0  0  2  0  0  0  0  0  0  0  0  0
   -1.6334    0.4781    0.0443 C   0  0  2  0  0  0  0  0  0  0  0  0
   -0.4525   -0.4868    0.2261 C   0  0  1  0  0  0  0  0  0  0  0  0
    0.8088    0.2467    0.7166 C   0  0  2  0  0  0  0  0  0  0  0  0
    1.0964    1.4693   -0.1889 C   0  0  1  0  0  0  0  0  0  0  0  0
   -0.0557    2.3240   -0.2667 O   0  0  0  0  0  0  0  0  0  0  0  0
   -2.3314    2.6906   -0.9505 C   0  0  0  0  0  0  0  0  0  0  0  0
   -2.7626   -0.1782   -0.5369 O   0  0  0  0  0  0  0  0  0  0  0  0
   -0.8118   -1.5490    1.1187 O   0  0  0  0  0  0  0  0  0  0  0  0
    1.9110   -0.6694    0.7499 O   0  0  0  0  0  0  0  0  0  0  0  0
    2.2867    2.2708    0.3222 C   0  0  0  0  0  0  0  0  0  0  0  0
    3.5862    1.9051   -0.0782 C   0  0  0  0  0  0  0  0  0  0  0  0
    4.7240    2.5389    0.4490 C   0  0  0  0  0  0  0  0  0  0  0  0
    4.5387    3.5771    1.3625 C   0  0  0  0  0  0  0  0  0  0  0  0
    3.2636    3.9767    1.7515 C   0  0  0  0  0  0  0  0  0  0  0  0
    2.1401    3.3190    1.2431 C   0  0  0  0  0  0  0  0  0  0  0  0
    5.6022    4.2009    1.8906 F   0  0  0  0  0  0  0  0  0  0  0  0
    6.1105    2.0558    0.0945 C   0  0  0  0  0  0  0  0  0  0  0  0
    6.5888    0.9549    1.0032 C   0  0  0  0  0  0  0  0  0  0  0  0
    7.3207    1.0625    2.1684 C   0  0  0  0  0  0  0  0  0  0  0  0
    7.5534   -0.2004    2.8138 C   0  0  0  0  0  0  0  0  0  0  0  0
    6.9767   -1.2476    2.0927 C   0  0  0  0  0  0  0  0  0  0  0  0
    6.2417   -0.6801    0.6430 S   0  0  0  0  0  0  0  0  0  0  0  0
    8.2272   -0.5126    4.0204 C   0  0  0  0  0  0  0  0  0  0  0  0
    8.2805   -1.8322    4.4835 C   0  0  0  0  0  0  0  0  0  0  0  0
    7.6771   -2.8522    3.7613 C   0  0  0  0  0  0  0  0  0  0  0  0
    7.0281   -2.5780    2.5553 C   0  0  0  0  0  0  0  0  0  0  0  0
   -1.9027    3.7726   -1.7786 O   0  0  0  0  0  0  0  0  0  0  0  0
   -0.9436    1.3242   -1.8418 H   0  0  0  0  0  0  0  0  0  0  0  0
   -1.9505    0.8349    1.0357 H   0  0  0  0  0  0  0  0  0  0  0  0
   -0.2404   -0.9860   -0.7263 H   0  0  0  0  0  0  0  0  0  0  0  0
    0.6481    0.5750    1.7511 H   0  0  0  0  0  0  0  0  0  0  0  0
    1.3369    1.1353   -1.2076 H   0  0  0  0  0  0  0  0  0  0  0  0
   -3.2289    2.2559   -1.4007 H   0  0  0  0  0  0  0  0  0  0  0  0
   -2.5926    3.1076    0.0278 H   0  0  0  0  0  0  0  0  0  0  0  0
   -2.4494   -0.8723   -1.1429 H   0  0  0  0  0  0  0  0  0  0  0  0
   -0.7919   -1.2093    2.0287 H   0  0  0  0  0  0  0  0  0  0  0  0
    1.9278   -1.1835   -0.0749 H   0  0  0  0  0  0  0  0  0  0  0  0
    3.7196    1.0858   -0.7833 H   0  0  0  0  0  0  0  0  0  0  0  0
    3.1519    4.7871    2.4654 H   0  0  0  0  0  0  0  0  0  0  0  0
    1.1514    3.6230    1.5809 H   0  0  0  0  0  0  0  0  0  0  0  0
    6.1214    1.7204   -0.9514 H   0  0  0  0  0  0  0  0  0  0  0  0
    6.8155    2.8968    0.1302 H   0  0  0  0  0  0  0  0  0  0  0  0
    7.6547    2.0122    2.5694 H   0  0  0  0  0  0  0  0  0  0  0  0
    8.6960    0.2781    4.6006 H   0  0  0  0  0  0  0  0  0  0  0  0
    8.7895   -2.0562    5.4180 H   0  0  0  0  0  0  0  0  0  0  0  0
    7.7065   -3.8729    4.1356 H   0  0  0  0  0  0  0  0  0  0  0  0
    6.5582   -3.3776    1.9901 H   0  0  0  0  0  0  0  0  0  0  0  0
   -1.0479    4.0641   -1.4077 H   0  0  0  0  0  0  0  0  0  0  0  0
  1  2  1  0  0  0  0
  1  7  1  0  0  0  0
  1 29  1  6  0  0  0
  2  3  1  0  0  0  0
  2  8  1  0  0  0  0
  2 30  1  1  0  0  0
  3  4  1  0  0  0  0
  3  9  1  0  0  0  0
  3 31  1  6  0  0  0
  4  5  1  0  0  0  0
  4 10  1  0  0  0  0
  4 32  1  1  0  0  0
  5  6  1  0  0  0  0
  5 11  1  0  0  0  0
  5 33  1  6  0  0  0
  6  1  1  0  0  0  0
  7 28  1  0  0  0  0
  7 34  1  0  0  0  0
  7 35  1  0  0  0  0
  8 36  1  0  0  0  0
  9 37  1  0  0  0  0
 10 38  1  0  0  0  0
 11 12  2  0  0  0  0
 12 13  1  0  0  0  0
 12 39  1  0  0  0  0
 13 14  2  0  0  0  0
 13 18  1  0  0  0  0
 14 15  1  0  0  0  0
 14 17  1  0  0  0  0
 15 16  2  0  0  0  0
 15 40  1  0  0  0  0
 16 11  1  0  0  0  0
 16 41  1  0  0  0  0
 18 19  1  0  0  0  0
 18 42  1  0  0  0  0
 18 43  1  0  0  0  0
 19 20  2  0  0  0  0
 20 21  1  0  0  0  0
 20 44  1  0  0  0  0
 21 22  2  0  0  0  0
 21 24  1  0  0  0  0
 22 23  1  0  0  0  0
 23 19  1  0  0  0  0
 24 25  2  0  0  0  0
 24 45  1  0  0  0  0
 25 26  1  0  0  0  0
 25 46  1  0  0  0  0
 26 27  2  0  0  0  0
 26 47  1  0  0  0  0
 27 22  1  0  0  0  0
 27 48  1  0  0  0  0
 28 49  1  0  0  0  0
M  END
>  <Mol_ID>
4159

>  <Formula>
C21H21FO5S

>  <MolWeight>
404.4518432

>  <Cat>
S8637

>  <Name>
Ipragliflozin (ASP1941)

>  <Synonyms>
N/A

>  <Target>
SGLT

>  <Form>
free base

>  <CAS>
761423-87-4

>  <URL>
http://selleckchem.com/products/ipragliflozin-asp-1941.html

$$$$
