Ipriflavone.cdx
 OpenBabel08302521353D

 37 39  0  0  0  0  0  0  0  0999 V2000
    2.2462    1.2906   -0.0210 C   0  0  0  0  0  0  0  0  0  0  0  0
    2.6966   -0.0316   -0.0372 C   0  0  0  0  0  0  0  0  0  0  0  0
    1.7616   -1.0756   -0.0026 C   0  0  0  0  0  0  0  0  0  0  0  0
    0.3923   -0.7963    0.0101 C   0  0  0  0  0  0  0  0  0  0  0  0
   -0.0446    0.5247    0.0059 C   0  0  0  0  0  0  0  0  0  0  0  0
    0.8799    1.5704   -0.0056 C   0  0  0  0  0  0  0  0  0  0  0  0
   -0.4789   -1.8576    0.0276 O   0  0  0  0  0  0  0  0  0  0  0  0
   -1.8280   -1.5812    0.0193 C   0  0  0  0  0  0  0  0  0  0  0  0
   -2.3906   -0.3642    0.0144 C   0  0  0  0  0  0  0  0  0  0  0  0
   -1.4876    0.8123    0.0151 C   0  0  0  0  0  0  0  0  0  0  0  0
    4.0107   -0.4136   -0.0378 O   0  0  0  0  0  0  0  0  0  0  0  0
    4.9714    0.4763   -0.6265 C   0  0  0  0  0  0  0  0  0  0  0  0
    6.3304    0.1664   -0.0053 C   0  0  0  0  0  0  0  0  0  0  0  0
    5.0044    0.2691   -2.1377 C   0  0  0  0  0  0  0  0  0  0  0  0
   -1.9002    1.9668    0.0204 O   0  0  0  0  0  0  0  0  0  0  0  0
   -3.8492   -0.2030   -0.0022 C   0  0  0  0  0  0  0  0  0  0  0  0
   -4.5671   -0.1294    1.1972 C   0  0  0  0  0  0  0  0  0  0  0  0
   -5.9516    0.0529    1.1779 C   0  0  0  0  0  0  0  0  0  0  0  0
   -6.6251    0.1606   -0.0382 C   0  0  0  0  0  0  0  0  0  0  0  0
   -5.9168    0.0837   -1.2366 C   0  0  0  0  0  0  0  0  0  0  0  0
   -4.5325   -0.0983   -1.2201 C   0  0  0  0  0  0  0  0  0  0  0  0
    2.9246    2.1344    0.0031 H   0  0  0  0  0  0  0  0  0  0  0  0
    2.1058   -2.1073    0.0051 H   0  0  0  0  0  0  0  0  0  0  0  0
    0.5384    2.6035    0.0055 H   0  0  0  0  0  0  0  0  0  0  0  0
   -2.3941   -2.5052    0.0166 H   0  0  0  0  0  0  0  0  0  0  0  0
    4.7688    1.5256   -0.4016 H   0  0  0  0  0  0  0  0  0  0  0  0
    6.5949   -0.8896   -0.1198 H   0  0  0  0  0  0  0  0  0  0  0  0
    7.1182    0.7812   -0.4527 H   0  0  0  0  0  0  0  0  0  0  0  0
    6.3055    0.3736    1.0705 H   0  0  0  0  0  0  0  0  0  0  0  0
    4.0426    0.5414   -2.5856 H   0  0  0  0  0  0  0  0  0  0  0  0
    5.7822    0.8812   -2.6048 H   0  0  0  0  0  0  0  0  0  0  0  0
    5.1835   -0.7818   -2.3893 H   0  0  0  0  0  0  0  0  0  0  0  0
   -4.0528   -0.1928    2.1535 H   0  0  0  0  0  0  0  0  0  0  0  0
   -6.5030    0.1238    2.1119 H   0  0  0  0  0  0  0  0  0  0  0  0
   -7.7010    0.3151   -0.0520 H   0  0  0  0  0  0  0  0  0  0  0  0
   -6.4405    0.1783   -2.1844 H   0  0  0  0  0  0  0  0  0  0  0  0
   -3.9906   -0.1383   -2.1621 H   0  0  0  0  0  0  0  0  0  0  0  0
  1  2  2  0  0  0  0
  1 22  1  0  0  0  0
  2  3  1  0  0  0  0
  2 11  1  0  0  0  0
  3  4  2  0  0  0  0
  3 23  1  0  0  0  0
  4  5  1  0  0  0  0
  4  7  1  0  0  0  0
  5  6  2  0  0  0  0
  6  1  1  0  0  0  0
  6 24  1  0  0  0  0
  7  8  1  0  0  0  0
  8  9  2  0  0  0  0
  8 25  1  0  0  0  0
  9 10  1  0  0  0  0
  9 16  1  0  0  0  0
 10  5  1  0  0  0  0
 10 15  2  0  0  0  0
 11 12  1  0  0  0  0
 12 13  1  0  0  0  0
 12 14  1  0  0  0  0
 12 26  1  0  0  0  0
 13 27  1  0  0  0  0
 13 28  1  0  0  0  0
 13 29  1  0  0  0  0
 14 30  1  0  0  0  0
 14 31  1  0  0  0  0
 14 32  1  0  0  0  0
 16 17  2  0  0  0  0
 17 18  1  0  0  0  0
 17 33  1  0  0  0  0
 18 19  2  0  0  0  0
 18 34  1  0  0  0  0
 19 20  1  0  0  0  0
 19 35  1  0  0  0  0
 20 21  2  0  0  0  0
 20 36  1  0  0  0  0
 21 16  1  0  0  0  0
 21 37  1  0  0  0  0
M  END
>  <Mol_ID>
660

>  <Formula>
C18H16O3

>  <MolWeight>
280.31784

>  <Cat>
S2422

>  <Name>
Ipriflavone (Osteofix)

>  <Synonyms>
N/A

>  <Target>
Others

>  <Form>
free base

>  <CAS>
35212-22-7

>  <URL>
http://selleckchem.com/products/ipriflavone.html

$$$$
