IPTG
 OpenBabel08302521243D

 33 33  0  0  0  0  0  0  0  0999 V2000
    3.4133   -0.5753    1.7913 S   0  0  0  0  0  0  0  0  0  0  0  0
    2.8573   -0.0400    0.1084 C   0  0  1  0  0  0  0  0  0  0  0  0
    3.3062    1.3890   -0.2966 C   0  0  2  0  0  0  0  0  0  0  0  0
    2.7547    2.4089    0.5477 O   0  0  0  0  0  0  0  0  0  0  0  0
    2.8785    1.6677   -1.7500 C   0  0  1  0  0  0  0  0  0  0  0  0
    3.4012    2.9224   -2.1957 O   0  0  0  0  0  0  0  0  0  0  0  0
    3.3241    0.5561   -2.6996 C   0  0  1  0  0  0  0  0  0  0  0  0
    4.7583    0.5640   -2.7700 O   0  0  0  0  0  0  0  0  0  0  0  0
    2.8009   -0.7807   -2.1711 C   0  0  2  0  0  0  0  0  0  0  0  0
    3.3450   -1.0010   -0.8529 O   0  0  0  0  0  0  0  0  0  0  0  0
    3.2143   -1.9479   -3.0749 C   0  0  0  0  0  0  0  0  0  0  0  0
    2.6617   -3.1590   -2.5640 O   0  0  0  0  0  0  0  0  0  0  0  0
    2.5902    0.6573    2.8842 C   0  0  0  0  0  0  0  0  0  0  0  0
    1.0670    0.5813    2.8015 C   0  0  0  0  0  0  0  0  0  0  0  0
    3.0483    0.4715    4.3301 C   0  0  0  0  0  0  0  0  0  0  0  0
    1.7662   -0.1091    0.1100 H   0  0  0  0  0  0  0  0  0  0  0  0
    4.3971    1.4774   -0.2165 H   0  0  0  0  0  0  0  0  0  0  0  0
    1.8460    2.6068    0.2508 H   0  0  0  0  0  0  0  0  0  0  0  0
    1.7861    1.7656   -1.7895 H   0  0  0  0  0  0  0  0  0  0  0  0
    4.3459    2.7720   -2.3942 H   0  0  0  0  0  0  0  0  0  0  0  0
    2.9563    0.7587   -3.7113 H   0  0  0  0  0  0  0  0  0  0  0  0
    5.0984   -0.0147   -2.0572 H   0  0  0  0  0  0  0  0  0  0  0  0
    1.7052   -0.7769   -2.0935 H   0  0  0  0  0  0  0  0  0  0  0  0
    2.8393   -1.8077   -4.0931 H   0  0  0  0  0  0  0  0  0  0  0  0
    4.3023   -2.0719   -3.1139 H   0  0  0  0  0  0  0  0  0  0  0  0
    2.9645   -3.2244   -1.6374 H   0  0  0  0  0  0  0  0  0  0  0  0
    2.9334    1.6511    2.6041 H   0  0  0  0  0  0  0  0  0  0  0  0
    0.6825   -0.3455    3.2428 H   0  0  0  0  0  0  0  0  0  0  0  0
    0.6228    1.4176    3.3544 H   0  0  0  0  0  0  0  0  0  0  0  0
    0.6912    0.6544    1.7783 H   0  0  0  0  0  0  0  0  0  0  0  0
    4.1390    0.5139    4.4137 H   0  0  0  0  0  0  0  0  0  0  0  0
    2.6471    1.2797    4.9513 H   0  0  0  0  0  0  0  0  0  0  0  0
    2.7002   -0.4763    4.7560 H   0  0  0  0  0  0  0  0  0  0  0  0
  1 13  1  0  0  0  0
  2  3  1  0  0  0  0
  2 10  1  0  0  0  0
  2 16  1  6  0  0  0
  2  1  1  0  0  0  0
  3  4  1  0  0  0  0
  3  5  1  0  0  0  0
  3 17  1  1  0  0  0
  4 18  1  0  0  0  0
  5  6  1  0  0  0  0
  5  7  1  0  0  0  0
  5 19  1  6  0  0  0
  6 20  1  0  0  0  0
  7  8  1  0  0  0  0
  7  9  1  0  0  0  0
  7 21  1  6  0  0  0
  8 22  1  0  0  0  0
  9 10  1  0  0  0  0
  9 11  1  0  0  0  0
  9 23  1  1  0  0  0
 11 12  1  0  0  0  0
 11 24  1  0  0  0  0
 11 25  1  0  0  0  0
 12 26  1  0  0  0  0
 13 14  1  0  0  0  0
 13 15  1  0  0  0  0
 13 27  1  0  0  0  0
 14 28  1  0  0  0  0
 14 29  1  0  0  0  0
 14 30  1  0  0  0  0
 15 31  1  0  0  0  0
 15 32  1  0  0  0  0
 15 33  1  0  0  0  0
M  END
>  <Mol_ID>
4953

>  <Formula>
C9H18O5S

>  <MolWeight>
238.30122

>  <Cat>
S6826

>  <Name>
IPTG

>  <Synonyms>
Isopropyl ¦Â-D-thiogalactoside, Isopropyl thiogalactoside, Isopropyl ¦Â-D-1-thiogalactopyranoside, lad-y

>  <Target>
Others

>  <Form>
Free Base

>  <CAS>
367-93-1

>  <URL>
http://www.selleckchem.com/products/iptg.html

$$$$
