IQ 3
 OpenBabel08302521283D

 37 41  0  0  0  0  0  0  0  0999 V2000
    0.9550    0.0814   -0.0589 O   0  0  0  0  0  0  0  0  0  0  0  0
    2.1940   -1.3193    1.7837 O   0  0  0  0  0  0  0  0  0  0  0  0
    2.9504    0.8195   -0.9986 O   0  0  0  0  0  0  0  0  0  0  0  0
   -4.2520    1.7366   -2.1803 N   0  0  0  0  0  0  0  0  0  0  0  0
   -1.5330    2.3276   -2.9257 N   0  0  0  0  0  0  0  0  0  0  0  0
    0.3191    0.8511   -1.0532 N   0  0  0  0  0  0  0  0  0  0  0  0
   -3.1992    0.3349   -0.4289 C   0  0  0  0  0  0  0  0  0  0  0  0
   -3.1801    1.2289   -1.5520 C   0  0  0  0  0  0  0  0  0  0  0  0
   -1.8732    0.0376   -0.0551 C   0  0  0  0  0  0  0  0  0  0  0  0
   -1.8763    1.5158   -1.9143 C   0  0  0  0  0  0  0  0  0  0  0  0
   -0.9740    0.7860   -0.9888 C   0  0  0  0  0  0  0  0  0  0  0  0
   -4.2755   -0.2082    0.2553 C   0  0  0  0  0  0  0  0  0  0  0  0
   -1.6044   -0.8106    1.0053 C   0  0  0  0  0  0  0  0  0  0  0  0
   -3.9506    2.5622   -3.2080 C   0  0  0  0  0  0  0  0  0  0  0  0
   -2.5939    2.8574   -3.5806 C   0  0  0  0  0  0  0  0  0  0  0  0
   -4.0109   -1.0626    1.3272 C   0  0  0  0  0  0  0  0  0  0  0  0
   -2.6887   -1.3612    1.6973 C   0  0  0  0  0  0  0  0  0  0  0  0
   -4.9890    3.1445   -3.9237 C   0  0  0  0  0  0  0  0  0  0  0  0
   -2.3741    3.7178   -4.6493 C   0  0  0  0  0  0  0  0  0  0  0  0
   -4.7431    4.0064   -4.9931 C   0  0  0  0  0  0  0  0  0  0  0  0
   -3.4334    4.2932   -5.3565 C   0  0  0  0  0  0  0  0  0  0  0  0
    2.3268    0.1730   -0.1614 C   0  0  0  0  0  0  0  0  0  0  0  0
    2.9532   -0.6174    0.8796 C   0  0  0  0  0  0  0  0  0  0  0  0
    4.2937   -0.8216    1.1640 C   0  0  0  0  0  0  0  0  0  0  0  0
    4.3546   -1.6871    2.2821 C   0  0  0  0  0  0  0  0  0  0  0  0
    3.0514   -1.9590    2.6222 C   0  0  0  0  0  0  0  0  0  0  0  0
   -5.2957    0.0252   -0.0349 H   0  0  0  0  0  0  0  0  0  0  0  0
   -0.5958   -1.0593    1.3114 H   0  0  0  0  0  0  0  0  0  0  0  0
   -4.8371   -1.5024    1.8820 H   0  0  0  0  0  0  0  0  0  0  0  0
   -2.5055   -2.0309    2.5356 H   0  0  0  0  0  0  0  0  0  0  0  0
   -6.0156    2.9220   -3.6416 H   0  0  0  0  0  0  0  0  0  0  0  0
   -1.3509    3.9471   -4.9391 H   0  0  0  0  0  0  0  0  0  0  0  0
   -5.5739    4.4500   -5.5373 H   0  0  0  0  0  0  0  0  0  0  0  0
   -3.2315    4.9640   -6.1885 H   0  0  0  0  0  0  0  0  0  0  0  0
    5.1222   -0.3911    0.6166 H   0  0  0  0  0  0  0  0  0  0  0  0
    5.2384   -2.0659    2.7776 H   0  0  0  0  0  0  0  0  0  0  0  0
    2.5922   -2.5602    3.3952 H   0  0  0  0  0  0  0  0  0  0  0  0
  1  6  1  0  0  0  0
  1 22  1  0  0  0  0
  2 23  1  0  0  0  0
  2 26  1  0  0  0  0
  3 22  2  0  0  0  0
  4  8  2  0  0  0  0
  4 14  1  0  0  0  0
  5 10  2  0  0  0  0
  5 15  1  0  0  0  0
  6 11  2  0  0  0  0
  7  8  1  0  0  0  0
  7  9  2  0  0  0  0
  7 12  1  0  0  0  0
  8 10  1  0  0  0  0
  9 11  1  0  0  0  0
  9 13  1  0  0  0  0
 10 11  1  0  0  0  0
 12 16  2  0  0  0  0
 12 27  1  0  0  0  0
 13 17  2  0  0  0  0
 13 28  1  0  0  0  0
 14 15  2  0  0  0  0
 14 18  1  0  0  0  0
 15 19  1  0  0  0  0
 16 17  1  0  0  0  0
 16 29  1  0  0  0  0
 17 30  1  0  0  0  0
 18 20  2  0  0  0  0
 18 31  1  0  0  0  0
 19 21  2  0  0  0  0
 19 32  1  0  0  0  0
 20 21  1  0  0  0  0
 20 33  1  0  0  0  0
 21 34  1  0  0  0  0
 22 23  1  0  0  0  0
 23 24  2  0  0  0  0
 24 25  1  0  0  0  0
 24 35  1  0  0  0  0
 25 26  2  0  0  0  0
 25 36  1  0  0  0  0
 26 37  1  0  0  0  0
M  END
>  <Mol_ID>
5394

>  <Formula>
C20H11N3O3

>  <MolWeight>
341.31964

>  <Cat>
S0781

>  <Name>
IQ 3

>  <Synonyms>
N/A

>  <Target>
Interleukins,JNK,NF-¦ÊB,TNF-alpha

>  <Form>
Free Base

>  <CAS>
312538-03-7

>  <URL>
https://www.selleckchem.com/products/iq-3.html

$$$$
