IRAK-4 protein kinase inhibitor 2
 OpenBabel08302521323D

 31 33  0  0  0  0  0  0  0  0999 V2000
    0.7093   -0.4827    0.6903 C   0  0  0  0  0  0  0  0  0  0  0  0
    0.3971   -1.8583    1.1888 C   0  0  0  0  0  0  0  0  0  0  0  0
   -0.9408   -2.1286    1.5283 C   0  0  0  0  0  0  0  0  0  0  0  0
   -1.2689   -3.3522    2.1286 C   0  0  0  0  0  0  0  0  0  0  0  0
   -0.2964   -4.3316    2.3427 C   0  0  0  0  0  0  0  0  0  0  0  0
    1.0186   -4.0941    1.9354 C   0  0  0  0  0  0  0  0  0  0  0  0
    1.3649   -2.8668    1.3515 C   0  0  0  0  0  0  0  0  0  0  0  0
   -0.2140    0.1890    0.2326 O   0  0  0  0  0  0  0  0  0  0  0  0
    2.0272   -0.0696    0.8419 N   0  0  0  0  0  0  0  0  0  0  0  0
   -2.6485   -3.6049    2.5517 N   0  3  0  0  0  0  0  0  0  0  0  0
   -3.5451   -2.9691    1.9898 O   0  0  0  0  0  0  0  0  0  0  0  0
   -2.8252   -4.4397    3.4531 O   0  5  0  0  0  0  0  0  0  0  0  0
    2.5329    0.9827    0.1069 C   0  0  0  0  0  0  0  0  0  0  0  0
    1.9889    1.5682   -0.9336 N   0  0  0  0  0  0  0  0  0  0  0  0
    2.9614    1.3779   -1.8758 C   0  0  0  0  0  0  0  0  0  0  0  0
    4.1801    1.0859   -1.2630 C   0  0  0  0  0  0  0  0  0  0  0  0
    3.8883    1.2219    0.0776 N   0  0  0  0  0  0  0  0  0  0  0  0
    2.8304    1.2381   -3.2582 C   0  0  0  0  0  0  0  0  0  0  0  0
    3.8809    0.6045   -3.9315 C   0  0  0  0  0  0  0  0  0  0  0  0
    5.0812    0.2867   -3.2797 C   0  0  0  0  0  0  0  0  0  0  0  0
    5.2976    0.6051   -1.9353 C   0  0  0  0  0  0  0  0  0  0  0  0
   -1.7003   -1.3712    1.3485 H   0  0  0  0  0  0  0  0  0  0  0  0
   -0.5463   -5.2740    2.8220 H   0  0  0  0  0  0  0  0  0  0  0  0
    1.7756   -4.8644    2.0804 H   0  0  0  0  0  0  0  0  0  0  0  0
    2.3914   -2.7360    1.0274 H   0  0  0  0  0  0  0  0  0  0  0  0
    2.7111   -0.6959    1.2364 H   0  0  0  0  0  0  0  0  0  0  0  0
    4.5302    1.0066    0.8188 H   0  0  0  0  0  0  0  0  0  0  0  0
    1.8804    1.4435   -3.7386 H   0  0  0  0  0  0  0  0  0  0  0  0
    3.7335    0.3028   -4.9653 H   0  0  0  0  0  0  0  0  0  0  0  0
    5.8497   -0.2593   -3.8221 H   0  0  0  0  0  0  0  0  0  0  0  0
    6.2156    0.3410   -1.4233 H   0  0  0  0  0  0  0  0  0  0  0  0
  1  2  1  0  0  0  0
  1  8  2  0  0  0  0
  1  9  1  0  0  0  0
  2  3  2  0  0  0  0
  2  7  1  0  0  0  0
  3  4  1  0  0  0  0
  3 22  1  0  0  0  0
  4  5  2  0  0  0  0
  4 10  1  0  0  0  0
  5  6  1  0  0  0  0
  5 23  1  0  0  0  0
  6  7  2  0  0  0  0
  6 24  1  0  0  0  0
  7 25  1  0  0  0  0
  9 13  1  0  0  0  0
  9 26  1  0  0  0  0
 10 11  2  0  0  0  0
 10 12  1  0  0  0  0
 13 14  2  0  0  0  0
 13 17  1  0  0  0  0
 14 15  1  0  0  0  0
 15 16  2  0  0  0  0
 16 17  1  0  0  0  0
 17 27  1  0  0  0  0
 18 19  2  0  0  0  0
 18 15  1  0  0  0  0
 18 28  1  0  0  0  0
 19 20  1  0  0  0  0
 19 29  1  0  0  0  0
 20 21  2  0  0  0  0
 20 30  1  0  0  0  0
 21 16  1  0  0  0  0
 21 31  1  0  0  0  0
M  CHG  2  10   1  12  -1
M  END
>  <Mol_ID>
6304

>  <Formula>
C14H10N4O3

>  <MolWeight>
282.2542

>  <Cat>
E0533

>  <Name>
IRAK-4 protein kinase inhibitor 2

>  <Target>
IRAK

>  <Form>
free base

>  <CAS>
301675-24-1

>  <URL>
http://www.selleckchem.com/products/irak-4-protein-kinase-inhibitor-2.html

$$$$
