Irosustat (BN83495)
 OpenBabel08302521223D

 36 38  0  0  0  0  0  0  0  0999 V2000
    1.1123    0.3710    0.1941 S   0  0  0  0  0  0  0  0  0  0  0  0
    0.5537   -0.9120    0.5559 O   0  0  0  0  0  0  0  0  0  0  0  0
    1.0992    1.4916    1.1041 O   0  0  0  0  0  0  0  0  0  0  0  0
    0.5325    0.8214   -1.2631 O   0  0  0  0  0  0  0  0  0  0  0  0
    2.7373    0.0434   -0.0867 N   0  0  0  0  0  0  0  0  0  0  0  0
   -5.2204    1.9509    0.2595 C   0  0  0  0  0  0  0  0  0  0  0  0
   -5.8285    1.5721   -1.0458 C   0  0  0  0  0  0  0  0  0  0  0  0
   -5.0789    1.2150   -2.1135 C   0  0  0  0  0  0  0  0  0  0  0  0
   -3.6076    1.1648   -1.9720 C   0  0  0  0  0  0  0  0  0  0  0  0
   -3.0577    1.4674   -0.7287 C   0  0  0  0  0  0  0  0  0  0  0  0
   -3.8502    1.8732    0.3548 O   0  0  0  0  0  0  0  0  0  0  0  0
   -1.6915    1.3857   -0.4555 C   0  0  0  0  0  0  0  0  0  0  0  0
   -0.8183    0.9751   -1.4518 C   0  0  0  0  0  0  0  0  0  0  0  0
   -1.3211    0.7168   -2.7248 C   0  0  0  0  0  0  0  0  0  0  0  0
   -2.7024    0.8059   -2.9814 C   0  0  0  0  0  0  0  0  0  0  0  0
   -5.7461    0.8100   -3.4108 C   0  0  0  0  0  0  0  0  0  0  0  0
   -6.5184   -0.5080   -3.2856 C   0  0  0  0  0  0  0  0  0  0  0  0
   -7.9041   -0.3565   -2.6560 C   0  0  0  0  0  0  0  0  0  0  0  0
   -7.9163    0.1610   -1.2182 C   0  0  0  0  0  0  0  0  0  0  0  0
   -7.3406    1.5706   -1.0665 C   0  0  0  0  0  0  0  0  0  0  0  0
   -5.8978    2.3116    1.2161 O   0  0  0  0  0  0  0  0  0  0  0  0
    3.2090    0.0281    0.8187 H   0  0  0  0  0  0  0  0  0  0  0  0
    2.8200   -0.8528   -0.5632 H   0  0  0  0  0  0  0  0  0  0  0  0
   -1.3547    1.6466    0.5432 H   0  0  0  0  0  0  0  0  0  0  0  0
   -0.6473    0.4254   -3.5294 H   0  0  0  0  0  0  0  0  0  0  0  0
   -3.0298    0.5722   -3.9898 H   0  0  0  0  0  0  0  0  0  0  0  0
   -6.4157    1.6118   -3.7496 H   0  0  0  0  0  0  0  0  0  0  0  0
   -5.0292    0.7036   -4.2277 H   0  0  0  0  0  0  0  0  0  0  0  0
   -5.9314   -1.2468   -2.7259 H   0  0  0  0  0  0  0  0  0  0  0  0
   -6.6576   -0.9211   -4.2925 H   0  0  0  0  0  0  0  0  0  0  0  0
   -8.3984   -1.3355   -2.6719 H   0  0  0  0  0  0  0  0  0  0  0  0
   -8.5155    0.3058   -3.2817 H   0  0  0  0  0  0  0  0  0  0  0  0
   -7.3902   -0.5435   -0.5618 H   0  0  0  0  0  0  0  0  0  0  0  0
   -8.9597    0.1789   -0.8790 H   0  0  0  0  0  0  0  0  0  0  0  0
   -7.7467    1.9943   -0.1410 H   0  0  0  0  0  0  0  0  0  0  0  0
   -7.7090    2.2318   -1.8606 H   0  0  0  0  0  0  0  0  0  0  0  0
  1  2  2  0  0  0  0
  1  3  2  0  0  0  0
  1  4  1  0  0  0  0
  1  5  1  0  0  0  0
  4 13  1  0  0  0  0
  5 22  1  0  0  0  0
  5 23  1  0  0  0  0
  6  7  1  0  0  0  0
  6 11  1  0  0  0  0
  6 21  2  0  0  0  0
  7  8  2  0  0  0  0
  7 20  1  0  0  0  0
  8  9  1  0  0  0  0
  8 16  1  0  0  0  0
  9 10  2  0  0  0  0
  9 15  1  0  0  0  0
 10 11  1  0  0  0  0
 10 12  1  0  0  0  0
 12 13  2  0  0  0  0
 12 24  1  0  0  0  0
 13 14  1  0  0  0  0
 14 15  2  0  0  0  0
 14 25  1  0  0  0  0
 15 26  1  0  0  0  0
 16 17  1  0  0  0  0
 16 27  1  0  0  0  0
 16 28  1  0  0  0  0
 17 18  1  0  0  0  0
 17 29  1  0  0  0  0
 17 30  1  0  0  0  0
 18 19  1  0  0  0  0
 18 31  1  0  0  0  0
 18 32  1  0  0  0  0
 19 20  1  0  0  0  0
 19 33  1  0  0  0  0
 19 34  1  0  0  0  0
 20 35  1  0  0  0  0
 20 36  1  0  0  0  0
M  END
>  <Mol_ID>
4723

>  <Formula>
C14H15NO5S

>  <MolWeight>
309.3376

>  <Cat>
S6558

>  <Name>
Irosustat (BN83495)

>  <Synonyms>
STX64

>  <Target>
Others

>  <Form>
Free Base

>  <CAS>
288628-05-7

>  <URL>
http://www.selleck.cn/products/irosustat.html

$$$$
