Isobergapten
 OpenBabel08302521223D

 24 26  0  0  0  0  0  0  0  0999 V2000
   -0.5210    0.4334   -0.0021 C   0  0  0  0  0  0  0  0  0  0  0  0
    0.8811    0.5206   -0.0044 C   0  0  0  0  0  0  0  0  0  0  0  0
   -1.1881   -0.8210    0.0013 C   0  0  0  0  0  0  0  0  0  0  0  0
   -1.2400    1.6534   -0.0031 O   0  0  0  0  0  0  0  0  0  0  0  0
    1.5996   -0.6602   -0.0025 C   0  0  0  0  0  0  0  0  0  0  0  0
    1.8471    1.5624   -0.0087 C   0  0  0  0  0  0  0  0  0  0  0  0
   -0.4021   -1.9979    0.0035 C   0  0  0  0  0  0  0  0  0  0  0  0
   -2.6535   -0.7446    0.0012 C   0  0  0  0  0  0  0  0  0  0  0  0
   -2.6189    1.7094   -0.0013 C   0  0  0  0  0  0  0  0  0  0  0  0
    1.0099   -1.9164    0.0016 C   0  0  0  0  0  0  0  0  0  0  0  0
    2.9365   -0.4039   -0.0056 O   0  0  0  0  0  0  0  0  0  0  0  0
    3.0783    0.9482   -0.0097 C   0  0  0  0  0  0  0  0  0  0  0  0
   -0.7659   -3.3190    0.0071 O   0  0  0  0  0  0  0  0  0  0  0  0
   -3.3081    0.4203   -0.0001 C   0  0  0  0  0  0  0  0  0  0  0  0
   -3.2425    2.7614   -0.0010 O   0  0  0  0  0  0  0  0  0  0  0  0
   -2.1141   -3.7361    0.0111 C   0  0  0  0  0  0  0  0  0  0  0  0
    1.6629    2.6275   -0.0114 H   0  0  0  0  0  0  0  0  0  0  0  0
   -3.2624   -1.6313    0.0016 H   0  0  0  0  0  0  0  0  0  0  0  0
    1.6245   -2.8109    0.0029 H   0  0  0  0  0  0  0  0  0  0  0  0
    4.0970    1.3109   -0.0129 H   0  0  0  0  0  0  0  0  0  0  0  0
   -4.3906    0.4642   -0.0006 H   0  0  0  0  0  0  0  0  0  0  0  0
   -2.6232   -3.4111    0.9230 H   0  0  0  0  0  0  0  0  0  0  0  0
   -2.6261   -3.4180   -0.9016 H   0  0  0  0  0  0  0  0  0  0  0  0
   -2.1269   -4.8303    0.0151 H   0  0  0  0  0  0  0  0  0  0  0  0
  1  2  2  0  0  0  0
  1  3  1  0  0  0  0
  1  4  1  0  0  0  0
  2  5  1  0  0  0  0
  2  6  1  0  0  0  0
  3  7  2  0  0  0  0
  3  8  1  0  0  0  0
  4  9  1  0  0  0  0
  5 10  2  0  0  0  0
  5 11  1  0  0  0  0
  6 12  2  0  0  0  0
  6 17  1  0  0  0  0
  7 13  1  0  0  0  0
  7 10  1  0  0  0  0
  8 14  2  0  0  0  0
  8 18  1  0  0  0  0
  9 15  2  0  0  0  0
  9 14  1  0  0  0  0
 10 19  1  0  0  0  0
 11 12  1  0  0  0  0
 12 20  1  0  0  0  0
 13 16  1  0  0  0  0
 14 21  1  0  0  0  0
 16 22  1  0  0  0  0
 16 23  1  0  0  0  0
 16 24  1  0  0  0  0
M  END
>  <Mol_ID>
4653

>  <Formula>
C12H8O4

>  <MolWeight>
216.18952

>  <Cat>
S9557

>  <Name>
Isobergapten

>  <Synonyms>
N/A

>  <Target>
Others

>  <Form>
Free Base

>  <CAS>
482-48-4

>  <URL>
https://www.selleckchem.com/products/isobergapten.html

$$$$
