ISOBUTYRALDEHYDE OXIME
 OpenBabel08302521363D

 15 14  0  0  0  0  0  0  0  0999 V2000
    0.9693   -0.0942    0.0551 C   0  0  0  0  0  0  0  0  0  0  0  0
    0.2955    1.0950   -0.5997 C   0  0  0  0  0  0  0  0  0  0  0  0
    2.2450   -0.2656    0.2383 N   0  0  0  0  0  0  0  0  0  0  0  0
   -0.5571    0.6048   -1.7649 C   0  0  0  0  0  0  0  0  0  0  0  0
   -0.5533    1.8189    0.4386 C   0  0  0  0  0  0  0  0  0  0  0  0
    2.9857    0.8096   -0.2559 O   0  0  0  0  0  0  0  0  0  0  0  0
    0.3020   -0.8929    0.4248 H   0  0  0  0  0  0  0  0  0  0  0  0
    1.0388    1.7973   -0.9903 H   0  0  0  0  0  0  0  0  0  0  0  0
   -1.3418   -0.0827   -1.4306 H   0  0  0  0  0  0  0  0  0  0  0  0
   -1.0361    1.4464   -2.2751 H   0  0  0  0  0  0  0  0  0  0  0  0
    0.0586    0.0707   -2.4969 H   0  0  0  0  0  0  0  0  0  0  0  0
    0.0643    2.1524    1.2797 H   0  0  0  0  0  0  0  0  0  0  0  0
   -1.0331    2.7006    0.0004 H   0  0  0  0  0  0  0  0  0  0  0  0
   -1.3384    1.1694    0.8437 H   0  0  0  0  0  0  0  0  0  0  0  0
    3.9018    0.5439   -0.0542 H   0  0  0  0  0  0  0  0  0  0  0  0
  1  2  1  0  0  0  0
  1  3  2  3  0  0  0
  1  7  1  0  0  0  0
  2  4  1  0  0  0  0
  2  5  1  0  0  0  0
  2  8  1  0  0  0  0
  3  6  1  0  0  0  0
  4  9  1  0  0  0  0
  4 10  1  0  0  0  0
  4 11  1  0  0  0  0
  5 12  1  0  0  0  0
  5 13  1  0  0  0  0
  5 14  1  0  0  0  0
  6 15  1  0  0  0  0
M  END
>  <Mol_ID>
7310

>  <Formula>
C4H9NO

>  <MolWeight>
87.12036

>  <Cat>
E4343

>  <Name>
ISOBUTYRALDEHYDE OXIME

>  <Synonyms>
ISOBUTYRALDEHYDE OXIME

>  <Target>
Others

>  <Form>
free base

>  <CAS>
151-00-8

>  <URL>
https://www.selleckchem.com/products/isobutyraldehyde-oxime.html

$$$$
