Isocurcumenol
 OpenBabel08302521573D

 39 41  0  0  1  0  0  0  0  0999 V2000
    0.2155   -2.5309   -0.6502 C   0  0  0  0  0  0  0  0  0  0  0  0
    2.3036    3.2209   -0.0097 C   0  0  0  0  0  0  0  0  0  0  0  0
   -1.9996    1.6784   -1.5536 O   0  0  0  0  0  0  0  0  0  0  0  0
   -2.3236    1.2332    1.2686 C   0  0  0  0  0  0  0  0  0  0  0  0
   -2.8087    2.1673    2.3385 C   0  0  0  0  0  0  0  0  0  0  0  0
   -3.1045   -0.0486    1.1243 C   0  0  0  0  0  0  0  0  0  0  0  0
    0.6774   -0.0642   -0.0541 C   0  0  2  0  0  0  0  0  0  0  0  0
    1.9262    0.7878   -0.3845 C   0  0  2  0  0  0  0  0  0  0  0  0
   -0.3187    0.1438   -1.0812 O   0  0  0  0  0  0  0  0  0  0  0  0
   -0.0142    0.3947    1.2241 C   0  0  0  0  0  0  0  0  0  0  0  0
    1.2120   -1.5076   -0.1085 C   0  0  2  0  0  0  0  0  0  0  0  0
    1.5757    2.2414   -0.5690 C   0  0  0  0  0  0  0  0  0  0  0  0
    2.4803    0.0048   -1.5743 C   0  0  0  0  0  0  0  0  0  0  0  0
   -0.8385    1.4438   -0.7838 C   0  0  2  0  0  0  0  0  0  0  0  0
   -1.0878    1.3802    0.7340 C   0  0  0  0  0  0  0  0  0  0  0  0
    2.4684   -1.4206   -1.0130 C   0  0  0  0  0  0  0  0  0  0  0  0
    0.2282    2.4887   -1.2249 C   0  0  0  0  0  0  0  0  0  0  0  0
   -0.0838   -2.2995   -1.6785 H   0  0  0  0  0  0  0  0  0  0  0  0
    0.6624   -3.5300   -0.6601 H   0  0  0  0  0  0  0  0  0  0  0  0
   -0.6855   -2.5659   -0.0309 H   0  0  0  0  0  0  0  0  0  0  0  0
    1.9938    4.2606   -0.0513 H   0  0  0  0  0  0  0  0  0  0  0  0
    3.2131    3.0026    0.5424 H   0  0  0  0  0  0  0  0  0  0  0  0
   -2.7382    1.2620   -1.0752 H   0  0  0  0  0  0  0  0  0  0  0  0
   -2.7767    1.6781    3.3175 H   0  0  0  0  0  0  0  0  0  0  0  0
   -3.8413    2.4680    2.1334 H   0  0  0  0  0  0  0  0  0  0  0  0
   -2.2021    3.0771    2.3918 H   0  0  0  0  0  0  0  0  0  0  0  0
   -2.5279   -0.8261    0.6107 H   0  0  0  0  0  0  0  0  0  0  0  0
   -3.3797   -0.4443    2.1068 H   0  0  0  0  0  0  0  0  0  0  0  0
   -4.0170    0.1258    0.5471 H   0  0  0  0  0  0  0  0  0  0  0  0
    2.6485    0.7010    0.4440 H   0  0  0  0  0  0  0  0  0  0  0  0
    0.6793    0.8977    1.9090 H   0  0  0  0  0  0  0  0  0  0  0  0
   -0.4506   -0.4507    1.7649 H   0  0  0  0  0  0  0  0  0  0  0  0
    1.5314   -1.8258    0.8915 H   0  0  0  0  0  0  0  0  0  0  0  0
    3.4793    0.3250   -1.8768 H   0  0  0  0  0  0  0  0  0  0  0  0
    1.8236    0.0679   -2.4528 H   0  0  0  0  0  0  0  0  0  0  0  0
    2.5065   -2.1823   -1.7969 H   0  0  0  0  0  0  0  0  0  0  0  0
    3.3587   -1.5560   -0.3844 H   0  0  0  0  0  0  0  0  0  0  0  0
   -0.1355    3.5048   -1.0234 H   0  0  0  0  0  0  0  0  0  0  0  0
    0.3680    2.4151   -2.3129 H   0  0  0  0  0  0  0  0  0  0  0  0
  1 18  1  0  0  0  0
  1 19  1  0  0  0  0
  1 20  1  0  0  0  0
  2 21  1  0  0  0  0
  2 22  1  0  0  0  0
  2 12  2  0  0  0  0
  3 23  1  0  0  0  0
  4  5  1  0  0  0  0
  4  6  1  0  0  0  0
  4 15  2  0  0  0  0
  5 24  1  0  0  0  0
  5 25  1  0  0  0  0
  5 26  1  0  0  0  0
  6 27  1  0  0  0  0
  6 28  1  0  0  0  0
  6 29  1  0  0  0  0
  7  8  1  0  0  0  0
  7  9  1  6  0  0  0
  7 10  1  0  0  0  0
  7 11  1  0  0  0  0
  8 12  1  0  0  0  0
  8 13  1  0  0  0  0
  8 30  1  1  0  0  0
 10 15  1  0  0  0  0
 10 31  1  0  0  0  0
 10 32  1  0  0  0  0
 11 16  1  0  0  0  0
 11 33  1  1  0  0  0
 11  1  1  0  0  0  0
 12 17  1  0  0  0  0
 13 16  1  0  0  0  0
 13 34  1  0  0  0  0
 13 35  1  0  0  0  0
 14  9  1  0  0  0  0
 14 15  1  0  0  0  0
 14 17  1  0  0  0  0
 14  3  1  6  0  0  0
 16 36  1  0  0  0  0
 16 37  1  0  0  0  0
 17 38  1  0  0  0  0
 17 39  1  0  0  0  0
M  END
>  <Mol_ID>
10073

>  <Formula>
C15H22O2

>  <MolWeight>
234.33398

>  <Cat>
E5720

>  <Name>
Isocurcumenol

>  <Synonyms>
NA

>  <Target>
Er¦Á

>  <Form>
Free Base

>  <CAS>
24063-71-6

>  <URL>
https://www.selleckchem.com/products/isocurcumenol.html

$$$$
