Isoeugenol acetate
 OpenBabel08302521363D

 29 29  0  0  0  0  0  0  0  0999 V2000
    0.8411    0.4300   -0.0321 O   0  0  0  0  0  0  0  0  0  0  0  0
    0.3024    1.4548    0.7453 C   0  0  0  0  0  0  0  0  0  0  0  0
   -1.1702    1.5555    0.4726 C   0  0  0  0  0  0  0  0  0  0  0  0
    0.8862    2.1393    1.5757 O   0  0  0  0  0  0  0  0  0  0  0  0
    2.3863    2.5005   -0.9766 O   0  0  0  0  0  0  0  0  0  0  0  0
    3.1086    3.7244   -0.9185 C   0  0  0  0  0  0  0  0  0  0  0  0
    6.4962    0.0347    0.0871 C   0  0  0  0  0  0  0  0  0  0  0  0
    7.2125   -0.6804    0.9668 C   0  0  0  0  0  0  0  0  0  0  0  0
    8.7059   -0.6339    1.0453 C   0  0  0  0  0  0  0  0  0  0  0  0
    2.2425    0.3474   -0.0144 C   0  0  0  0  0  0  0  0  0  0  0  0
    3.0372    1.4047   -0.4712 C   0  0  0  0  0  0  0  0  0  0  0  0
    2.8131   -0.8575    0.3962 C   0  0  0  0  0  0  0  0  0  0  0  0
    4.4273    1.2660   -0.4345 C   0  0  0  0  0  0  0  0  0  0  0  0
    4.2057   -0.9848    0.4198 C   0  0  0  0  0  0  0  0  0  0  0  0
    5.0258    0.0875    0.0428 C   0  0  0  0  0  0  0  0  0  0  0  0
   -1.7104    0.8522    1.1097 H   0  0  0  0  0  0  0  0  0  0  0  0
   -1.5055    2.5759    0.6804 H   0  0  0  0  0  0  0  0  0  0  0  0
   -1.3788    1.3486   -0.5809 H   0  0  0  0  0  0  0  0  0  0  0  0
    3.5708    3.8791    0.0630 H   0  0  0  0  0  0  0  0  0  0  0  0
    3.8570    3.7642   -1.7163 H   0  0  0  0  0  0  0  0  0  0  0  0
    2.3987    4.5396   -1.0848 H   0  0  0  0  0  0  0  0  0  0  0  0
    7.0137    0.6813   -0.6205 H   0  0  0  0  0  0  0  0  0  0  0  0
    6.7225   -1.3083    1.7088 H   0  0  0  0  0  0  0  0  0  0  0  0
    9.0146   -0.3319    2.0515 H   0  0  0  0  0  0  0  0  0  0  0  0
    9.1272   -1.6218    0.8379 H   0  0  0  0  0  0  0  0  0  0  0  0
    9.1382    0.0800    0.3347 H   0  0  0  0  0  0  0  0  0  0  0  0
    2.1856   -1.6910    0.6976 H   0  0  0  0  0  0  0  0  0  0  0  0
    5.0679    2.0715   -0.7777 H   0  0  0  0  0  0  0  0  0  0  0  0
    4.6411   -1.9317    0.7322 H   0  0  0  0  0  0  0  0  0  0  0  0
  1  2  1  0  0  0  0
  1 10  1  0  0  0  0
  2  3  1  0  0  0  0
  2  4  2  0  0  0  0
  3 16  1  0  0  0  0
  3 17  1  0  0  0  0
  3 18  1  0  0  0  0
  5  6  1  0  0  0  0
  5 11  1  0  0  0  0
  6 19  1  0  0  0  0
  6 20  1  0  0  0  0
  6 21  1  0  0  0  0
  7  8  2  3  0  0  0
  7 15  1  0  0  0  0
  7 22  1  0  0  0  0
  8  9  1  0  0  0  0
  8 23  1  0  0  0  0
  9 24  1  0  0  0  0
  9 25  1  0  0  0  0
  9 26  1  0  0  0  0
 10 11  2  0  0  0  0
 10 12  1  0  0  0  0
 11 13  1  0  0  0  0
 12 14  2  0  0  0  0
 12 27  1  0  0  0  0
 13 15  2  0  0  0  0
 13 28  1  0  0  0  0
 14 15  1  0  0  0  0
 14 29  1  0  0  0  0
M  END
>  <Mol_ID>
7094

>  <Formula>
C12H14O3

>  <MolWeight>
206.23776

>  <Cat>
E4116

>  <Name>
Isoeugenol acetate

>  <Synonyms>
Isoeugenyl acetate

>  <Target>
Antifungal

>  <Form>
free base

>  <CAS>
93-29-8

>  <URL>
https://www.selleckchem.com/products/isoeugenol-acetate.html

$$$$
