Isoeugenol
 OpenBabel08302520343D

 24 24  0  0  0  0  0  0  0  0999 V2000
    0.9000   -0.0368    0.0171 C   0  0  0  0  0  0  0  0  0  0  0  0
    0.1239   -1.2018    0.0121 C   0  0  0  0  0  0  0  0  0  0  0  0
    0.2561    1.2046    0.0154 C   0  0  0  0  0  0  0  0  0  0  0  0
    2.2703    0.0307    0.0231 O   0  0  0  0  0  0  0  0  0  0  0  0
   -1.2838   -1.1297   -0.0126 C   0  0  0  0  0  0  0  0  0  0  0  0
   -1.1269    1.3012    0.0054 C   0  0  0  0  0  0  0  0  0  0  0  0
    0.9822    2.3643    0.0264 O   0  0  0  0  0  0  0  0  0  0  0  0
    2.9730   -1.2056    0.0208 C   0  0  0  0  0  0  0  0  0  0  0  0
   -1.8925    0.1351   -0.0061 C   0  0  0  0  0  0  0  0  0  0  0  0
   -2.0646   -2.3834   -0.0021 C   0  0  0  0  0  0  0  0  0  0  0  0
   -3.2804   -2.5414   -0.5609 C   0  0  0  0  0  0  0  0  0  0  0  0
   -4.0533   -3.8198   -0.5551 C   0  0  0  0  0  0  0  0  0  0  0  0
    0.5946   -2.1803    0.0124 H   0  0  0  0  0  0  0  0  0  0  0  0
   -1.6047    2.2758    0.0041 H   0  0  0  0  0  0  0  0  0  0  0  0
    1.9151    2.0761    0.0355 H   0  0  0  0  0  0  0  0  0  0  0  0
    2.7674   -1.7757    0.9323 H   0  0  0  0  0  0  0  0  0  0  0  0
    2.7418   -1.7908   -0.8754 H   0  0  0  0  0  0  0  0  0  0  0  0
    4.0438   -0.9800    0.0029 H   0  0  0  0  0  0  0  0  0  0  0  0
   -2.9752    0.2390   -0.0097 H   0  0  0  0  0  0  0  0  0  0  0  0
   -1.5933   -3.2327    0.4871 H   0  0  0  0  0  0  0  0  0  0  0  0
   -3.7730   -1.7172   -1.0692 H   0  0  0  0  0  0  0  0  0  0  0  0
   -5.0166   -3.6648   -0.0576 H   0  0  0  0  0  0  0  0  0  0  0  0
   -4.2521   -4.1371   -1.5854 H   0  0  0  0  0  0  0  0  0  0  0  0
   -3.5283   -4.6307   -0.0422 H   0  0  0  0  0  0  0  0  0  0  0  0
  1  2  2  0  0  0  0
  1  3  1  0  0  0  0
  1  4  1  0  0  0  0
  2  5  1  0  0  0  0
  2 13  1  0  0  0  0
  3  6  2  0  0  0  0
  3  7  1  0  0  0  0
  4  8  1  0  0  0  0
  5  9  2  0  0  0  0
  5 10  1  0  0  0  0
  6  9  1  0  0  0  0
  6 14  1  0  0  0  0
  7 15  1  0  0  0  0
  8 16  1  0  0  0  0
  8 17  1  0  0  0  0
  8 18  1  0  0  0  0
  9 19  1  0  0  0  0
 10 11  2  0  0  0  0
 10 20  1  0  0  0  0
 11 12  1  0  0  0  0
 11 21  1  0  0  0  0
 12 22  1  0  0  0  0
 12 23  1  0  0  0  0
 12 24  1  0  0  0  0
M  END
>  <Mol_ID>
3398

>  <Formula>
C10H12O2

>  <MolWeight>
164.20108

>  <Cat>
S5757

>  <Name>
Isoeugenol

>  <Synonyms>
4-Propenylguaiacol

>  <Target>
Anti-infection

>  <Form>
Free Base

>  <CAS>
97-54-1

>  <URL>
http://www.selleckchem.com/products/isoeugenol.html

$$$$
