Isoforskolin
 OpenBabel08302521503D

 63 65  0  0  1  0  0  0  0  0999 V2000
    1.8197   -0.6088   -1.8055 C   0  0  0  0  0  0  0  0  0  0  0  0
    4.2755    0.5401   -1.3014 O   0  0  0  0  0  0  0  0  0  0  0  0
    3.3426   -0.5198    1.6347 O   0  0  0  0  0  0  0  0  0  0  0  0
    4.8913    2.7490   -1.3231 C   0  0  0  0  0  0  0  0  0  0  0  0
    2.1274    2.9775   -2.9089 O   0  0  0  0  0  0  0  0  0  0  0  0
    0.4166    1.8083   -1.3759 O   0  0  0  0  0  0  0  0  0  0  0  0
   -0.6777    2.2195   -2.0766 C   0  0  0  0  0  0  0  0  0  0  0  0
   -0.5564    1.7729   -3.5167 C   0  0  0  0  0  0  0  0  0  0  0  0
   -1.6323    2.7933   -1.5759 O   0  0  0  0  0  0  0  0  0  0  0  0
   -1.0865   -0.8677   -0.4922 C   0  0  0  0  0  0  0  0  0  0  0  0
   -1.0910   -0.2259    1.8572 C   0  0  0  0  0  0  0  0  0  0  0  0
    1.2976    4.1176    0.4363 O   0  0  0  0  0  0  0  0  0  0  0  0
    5.5791    5.0068    0.4704 C   0  0  0  0  0  0  0  0  0  0  0  0
    6.0822    6.1152   -0.1010 C   0  0  0  0  0  0  0  0  0  0  0  0
    3.4718    5.2291    1.6528 C   0  0  0  0  0  0  0  0  0  0  0  0
    2.1681    0.0958   -0.4573 C   0  0  1  0  0  0  0  0  0  0  0  0
    3.1284    1.3255   -0.9343 C   0  0  1  0  0  0  0  0  0  0  0  0
    0.9674    0.4797    0.4641 C   0  0  1  0  0  0  0  0  0  0  0  0
    2.8884   -1.0362    0.3836 C   0  0  2  0  0  0  0  0  0  0  0  0
    3.5360    2.4297   -0.0687 C   0  0  2  0  0  0  0  0  0  0  0  0
    2.6573    2.9226   -1.7974 C   0  0  0  0  0  0  0  0  0  0  0  0
    0.5759    1.8673    0.0490 C   0  0  1  0  0  0  0  0  0  0  0  0
   -0.1300   -0.6254    0.6921 C   0  0  0  0  0  0  0  0  0  0  0  0
    1.9740   -2.2570    0.6279 C   0  0  0  0  0  0  0  0  0  0  0  0
    1.8154    2.7852    0.4800 C   0  0  2  0  0  0  0  0  0  0  0  0
    4.2595    3.0554    0.9178 O   0  0  0  0  0  0  0  0  0  0  0  0
    3.2273    4.5241   -1.0284 C   0  0  0  0  0  0  0  0  0  0  0  0
    0.5639   -1.9402    1.1663 C   0  0  0  0  0  0  0  0  0  0  0  0
    4.1247    4.4779    0.4742 C   0  0  2  0  0  0  0  0  0  0  0  0
    2.7311   -0.9093   -2.3340 H   0  0  0  0  0  0  0  0  0  0  0  0
    1.2603   -1.5331   -1.6937 H   0  0  0  0  0  0  0  0  0  0  0  0
    1.2646    0.0217   -2.4920 H   0  0  0  0  0  0  0  0  0  0  0  0
    4.8390    0.4884   -0.4936 H   0  0  0  0  0  0  0  0  0  0  0  0
    3.6453   -1.2682    2.1771 H   0  0  0  0  0  0  0  0  0  0  0  0
    5.2098    3.7634   -1.5586 H   0  0  0  0  0  0  0  0  0  0  0  0
    5.8080    2.2736   -0.9586 H   0  0  0  0  0  0  0  0  0  0  0  0
    4.6972    2.3414   -2.3420 H   0  0  0  0  0  0  0  0  0  0  0  0
   -1.0245    0.7960   -3.6700 H   0  0  0  0  0  0  0  0  0  0  0  0
   -0.9988    2.5138   -4.1898 H   0  0  0  0  0  0  0  0  0  0  0  0
    0.4886    1.6697   -3.8289 H   0  0  0  0  0  0  0  0  0  0  0  0
   -1.8513   -1.6108   -0.2321 H   0  0  0  0  0  0  0  0  0  0  0  0
   -1.6261    0.0476   -0.7508 H   0  0  0  0  0  0  0  0  0  0  0  0
   -0.6167   -1.2398   -1.3966 H   0  0  0  0  0  0  0  0  0  0  0  0
   -0.5637   -0.1272    2.8121 H   0  0  0  0  0  0  0  0  0  0  0  0
   -1.6122    0.7146    1.6579 H   0  0  0  0  0  0  0  0  0  0  0  0
   -1.8629   -0.9962    2.0008 H   0  0  0  0  0  0  0  0  0  0  0  0
    0.5582    4.1690   -0.2029 H   0  0  0  0  0  0  0  0  0  0  0  0
    6.2670    4.3962    1.0604 H   0  0  0  0  0  0  0  0  0  0  0  0
    7.1175    6.3555    0.0452 H   0  0  0  0  0  0  0  0  0  0  0  0
    5.4651    6.7989   -0.6656 H   0  0  0  0  0  0  0  0  0  0  0  0
    4.2106    5.7458    2.2824 H   0  0  0  0  0  0  0  0  0  0  0  0
    2.7756    5.9963    1.3097 H   0  0  0  0  0  0  0  0  0  0  0  0
    2.9644    4.5433    2.3390 H   0  0  0  0  0  0  0  0  0  0  0  0
    1.3473    0.6152    1.4887 H   0  0  0  0  0  0  0  0  0  0  0  0
    3.7734   -1.4158   -0.1294 H   0  0  0  0  0  0  0  0  0  0  0  0
   -0.3446    2.2196    0.5270 H   0  0  0  0  0  0  0  0  0  0  0  0
    2.4503   -2.9349    1.3394 H   0  0  0  0  0  0  0  0  0  0  0  0
    1.8745   -2.8340   -0.2954 H   0  0  0  0  0  0  0  0  0  0  0  0
    1.9244    2.6181    1.5596 H   0  0  0  0  0  0  0  0  0  0  0  0
    2.3940    5.2329   -0.9419 H   0  0  0  0  0  0  0  0  0  0  0  0
    3.8337    5.0395   -1.7923 H   0  0  0  0  0  0  0  0  0  0  0  0
   -0.0911   -2.8066    0.9722 H   0  0  0  0  0  0  0  0  0  0  0  0
    0.6669   -1.9163    2.2605 H   0  0  0  0  0  0  0  0  0  0  0  0
  1 30  1  0  0  0  0
  1 31  1  0  0  0  0
  1 32  1  0  0  0  0
  2 33  1  0  0  0  0
  3 34  1  0  0  0  0
  4 35  1  0  0  0  0
  4 36  1  0  0  0  0
  4 37  1  0  0  0  0
  5 21  2  0  0  0  0
  6  7  1  0  0  0  0
  7  8  1  0  0  0  0
  7  9  2  0  0  0  0
  8 38  1  0  0  0  0
  8 39  1  0  0  0  0
  8 40  1  0  0  0  0
 10 23  1  0  0  0  0
 10 41  1  0  0  0  0
 10 42  1  0  0  0  0
 10 43  1  0  0  0  0
 11 23  1  0  0  0  0
 11 44  1  0  0  0  0
 11 45  1  0  0  0  0
 11 46  1  0  0  0  0
 12 47  1  0  0  0  0
 13 14  2  0  0  0  0
 13 48  1  0  0  0  0
 14 49  1  0  0  0  0
 14 50  1  0  0  0  0
 15 51  1  0  0  0  0
 15 52  1  0  0  0  0
 15 53  1  0  0  0  0
 16  1  1  6  0  0  0
 16 17  1  0  0  0  0
 16 18  1  0  0  0  0
 16 19  1  0  0  0  0
 17  2  1  6  0  0  0
 17 20  1  0  0  0  0
 17 21  1  0  0  0  0
 18 22  1  0  0  0  0
 18 23  1  0  0  0  0
 18 54  1  1  0  0  0
 19  3  1  0  0  0  0
 19 24  1  0  0  0  0
 19 55  1  6  0  0  0
 20  4  1  6  0  0  0
 20 25  1  0  0  0  0
 20 26  1  0  0  0  0
 21 27  1  0  0  0  0
 22  6  1  0  0  0  0
 22 25  1  0  0  0  0
 22 56  1  1  0  0  0
 23 28  1  0  0  0  0
 24 28  1  0  0  0  0
 24 57  1  0  0  0  0
 24 58  1  0  0  0  0
 25 12  1  0  0  0  0
 25 59  1  1  0  0  0
 26 29  1  0  0  0  0
 27 29  1  0  0  0  0
 27 60  1  0  0  0  0
 27 61  1  0  0  0  0
 28 62  1  0  0  0  0
 28 63  1  0  0  0  0
 29 15  1  0  0  0  0
 29 13  1  6  0  0  0
M  END
>  <Mol_ID>
9880

>  <Formula>
C22H34O7

>  <MolWeight>
410.50116

>  <Cat>
E2730

>  <Name>
Isoforskolin

>  <Synonyms>
Coleonol B

>  <Target>
TNF-¦Á, IL-1¦Â, IL-6, IL-8

>  <Form>
free base

>  <CAS>
64657-21-2

>  <URL>
https://www.selleckchem.com/products/isoforskolin.html

$$$$
