Isolinderalactone
 OpenBabel08302521473D

 34 36  0  0  1  0  0  0  0  0999 V2000
   17.5342   -3.7076   -2.1508 C   0  0  0  0  0  0  0  0  0  0  0  0
   16.7125   -4.7311   -2.4902 C   0  0  0  0  0  0  0  0  0  0  0  0
   17.9507   -1.4209   -2.9743 C   0  0  0  0  0  0  0  0  0  0  0  0
   17.8312    0.2868    2.3177 C   0  0  0  0  0  0  0  0  0  0  0  0
   15.2021   -4.1830    2.5907 C   0  0  0  0  0  0  0  0  0  0  0  0
   15.9153   -1.2652    2.6359 O   0  0  0  0  0  0  0  0  0  0  0  0
   17.3716   -2.8798    0.6395 C   0  0  2  0  0  0  0  0  0  0  0  0
   17.8157   -1.6141   -0.1179 C   0  0  1  0  0  0  0  0  0  0  0  0
   15.8749   -3.0761    0.3845 C   0  0  0  0  0  0  0  0  0  0  0  0
   17.6100   -2.6625    2.0007 O   0  0  0  0  0  0  0  0  0  0  0  0
   17.2568   -2.0780   -1.7515 C   0  0  2  0  0  0  0  0  0  0  0  0
   17.8496   -0.5468    1.2126 C   0  0  0  0  0  0  0  0  0  0  0  0
   15.1774   -2.6495   -0.7321 C   0  0  0  0  0  0  0  0  0  0  0  0
   14.9089   -3.6384    1.2478 C   0  0  0  0  0  0  0  0  0  0  0  0
   16.9820   -1.4780    2.0821 C   0  0  0  0  0  0  0  0  0  0  0  0
   15.7044   -1.9725   -1.9283 C   0  0  0  0  0  0  0  0  0  0  0  0
   13.8592   -2.8985   -0.6179 O   0  0  0  0  0  0  0  0  0  0  0  0
   13.6984   -3.4498    0.6156 C   0  0  0  0  0  0  0  0  0  0  0  0
   18.5774   -3.9690   -2.3484 H   0  0  0  0  0  0  0  0  0  0  0  0
   17.0747   -5.7037   -2.8210 H   0  0  0  0  0  0  0  0  0  0  0  0
   15.6289   -4.7090   -2.5018 H   0  0  0  0  0  0  0  0  0  0  0  0
   17.2952   -1.4680   -3.8631 H   0  0  0  0  0  0  0  0  0  0  0  0
   18.2440   -0.3870   -2.8267 H   0  0  0  0  0  0  0  0  0  0  0  0
   18.8443   -1.9819   -3.2936 H   0  0  0  0  0  0  0  0  0  0  0  0
   17.1488    0.2622    3.2271 H   0  0  0  0  0  0  0  0  0  0  0  0
   18.5776    1.0189    2.6641 H   0  0  0  0  0  0  0  0  0  0  0  0
   16.1808   -4.6779    2.5785 H   0  0  0  0  0  0  0  0  0  0  0  0
   15.2451   -3.3845    3.3366 H   0  0  0  0  0  0  0  0  0  0  0  0
   14.4534   -4.9041    2.9062 H   0  0  0  0  0  0  0  0  0  0  0  0
   17.9693   -3.7501    0.3650 H   0  0  0  0  0  0  0  0  0  0  0  0
   18.9163   -1.5910   -0.3083 H   0  0  0  0  0  0  0  0  0  0  0  0
   15.1908   -1.0062   -2.0169 H   0  0  0  0  0  0  0  0  0  0  0  0
   15.4732   -2.4442   -2.8989 H   0  0  0  0  0  0  0  0  0  0  0  0
   12.6765   -3.6229    0.9091 H   0  0  0  0  0  0  0  0  0  0  0  0
  1  2  2  0  0  0  0
  1 19  1  0  0  0  0
  2 20  1  0  0  0  0
  2 21  1  0  0  0  0
  3 22  1  0  0  0  0
  3 23  1  0  0  0  0
  3 24  1  0  0  0  0
  4 25  1  0  0  0  0
  4 26  1  0  0  0  0
  4 12  2  0  0  0  0
  5 27  1  0  0  0  0
  5 28  1  0  0  0  0
  5 29  1  0  0  0  0
  5 14  1  0  0  0  0
  6 15  2  0  0  0  0
  7  8  1  0  0  0  0
  7  9  1  0  0  0  0
  7 10  1  0  0  0  0
  7 30  1  6  0  0  0
  8 11  1  0  0  0  0
  8 12  1  0  0  0  0
  8 31  1  6  0  0  0
  9 13  2  0  0  0  0
  9 14  1  0  0  0  0
 10 15  1  0  0  0  0
 11 16  1  0  0  0  0
 11  1  1  6  0  0  0
 11  3  1  0  0  0  0
 12 15  1  0  0  0  0
 13 16  1  0  0  0  0
 13 17  1  0  0  0  0
 14 18  2  0  0  0  0
 16 32  1  0  0  0  0
 16 33  1  0  0  0  0
 17 18  1  0  0  0  0
 18 34  1  0  0  0  0
M  END
>  <Mol_ID>
9769

>  <Formula>
C15H16O3

>  <MolWeight>
244.28574

>  <Cat>
E2273

>  <Name>
Isolinderalactone

>  <Synonyms>
NA

>  <Target>
VEGFR2

>  <Form>
Free Base

>  <CAS>
957-66-4

>  <URL>
https://www.selleckchem.com/products/isolinderalactone.html

$$$$
