Isonicotinic acid
 OpenBabel08302520383D

 14 14  0  0  0  0  0  0  0  0999 V2000
    1.4713    0.0207   -0.0049 C   0  0  0  0  0  0  0  0  0  0  0  0
    0.7371    1.2075   -0.0082 C   0  0  0  0  0  0  0  0  0  0  0  0
    0.8062   -1.2060    0.0152 C   0  0  0  0  0  0  0  0  0  0  0  0
    2.9498    0.1197    0.0349 C   0  0  0  0  0  0  0  0  0  0  0  0
   -0.6412    1.1170   -0.0211 C   0  0  0  0  0  0  0  0  0  0  0  0
   -0.5771   -1.1874   -0.0021 C   0  0  0  0  0  0  0  0  0  0  0  0
    3.5908   -0.8969   -0.5736 O   0  0  0  0  0  0  0  0  0  0  0  0
    3.5290    1.0629    0.5473 O   0  0  0  0  0  0  0  0  0  0  0  0
   -1.3110   -0.0551   -0.0296 N   0  0  0  0  0  0  0  0  0  0  0  0
    1.2276    2.1759    0.0067 H   0  0  0  0  0  0  0  0  0  0  0  0
    1.3285   -2.1533    0.0788 H   0  0  0  0  0  0  0  0  0  0  0  0
   -1.2630    2.0084   -0.0196 H   0  0  0  0  0  0  0  0  0  0  0  0
   -1.1533   -2.1091    0.0171 H   0  0  0  0  0  0  0  0  0  0  0  0
    3.0332   -1.4847   -1.1129 H   0  0  0  0  0  0  0  0  0  0  0  0
  1  2  2  0  0  0  0
  1  3  1  0  0  0  0
  1  4  1  0  0  0  0
  2  5  1  0  0  0  0
  2 10  1  0  0  0  0
  3  6  2  0  0  0  0
  3 11  1  0  0  0  0
  4  7  1  0  0  0  0
  4  8  2  0  0  0  0
  5  9  2  0  0  0  0
  5 12  1  0  0  0  0
  6  9  1  0  0  0  0
  6 13  1  0  0  0  0
  7 14  1  0  0  0  0
M  END
>  <Mol_ID>
3510

>  <Formula>
C6H5NO2

>  <MolWeight>
123.1094

>  <Cat>
S6014

>  <Name>
Isonicotinic acid

>  <Synonyms>
Isoniazid, 4-pyridinecarboxylic acid, p-pyridinecarboxylic acid, 4-Picolinic acid

>  <Target>
Others

>  <Form>
free base

>  <CAS>
55-22-1

>  <URL>
http://www.selleck.cn/products/isonicotinic-acid.html

$$$$
