Isopsoralenoside
 OpenBabel08302521593D

 44 46  0  0  1  0  0  0  0  0999 V2000
    3.0509    0.9749    0.6784 O   0  0  0  0  0  0  0  0  0  0  0  0
    4.9832    2.9409    0.7428 C   0  0  0  0  0  0  0  0  0  0  0  0
    6.0509    3.5698    1.2536 C   0  0  0  0  0  0  0  0  0  0  0  0
    6.1246    4.8420    1.9992 C   0  0  0  0  0  0  0  0  0  0  0  0
    7.3577    5.3615    1.8688 O   0  0  0  0  0  0  0  0  0  0  0  0
    5.2587    5.4028    2.6425 O   0  0  0  0  0  0  0  0  0  0  0  0
    2.2783    0.7381   -2.2183 O   0  0  0  0  0  0  0  0  0  0  0  0
    2.6564   -3.6135    1.4058 C   0  0  0  0  0  0  0  0  0  0  0  0
    2.1918   -3.2999    2.7211 O   0  0  0  0  0  0  0  0  0  0  0  0
    2.7518   -1.9489   -3.2358 O   0  0  0  0  0  0  0  0  0  0  0  0
    1.9039   -4.0360   -1.4092 O   0  0  0  0  0  0  0  0  0  0  0  0
    2.5473    2.2658    0.5780 C   0  0  0  0  0  0  0  0  0  0  0  0
    1.1744    2.6347    0.4829 C   0  0  0  0  0  0  0  0  0  0  0  0
    3.5410    3.2968    0.6823 C   0  0  0  0  0  0  0  0  0  0  0  0
    0.8759    3.9984    0.4776 C   0  0  0  0  0  0  0  0  0  0  0  0
   -0.1076    2.0040    0.4001 C   0  0  0  0  0  0  0  0  0  0  0  0
    3.1529    4.6414    0.6152 C   0  0  0  0  0  0  0  0  0  0  0  0
    1.8134    5.0195    0.5394 C   0  0  0  0  0  0  0  0  0  0  0  0
   -0.4635    4.2121    0.3997 O   0  0  0  0  0  0  0  0  0  0  0  0
   -1.0558    2.9995    0.3557 C   0  0  0  0  0  0  0  0  0  0  0  0
    2.3818   -0.1496    0.1113 C   0  0  2  0  0  0  0  0  0  0  0  0
    2.8176   -1.2942    0.8590 O   0  0  0  0  0  0  0  0  0  0  0  0
    2.7638   -0.3206   -1.3789 C   0  0  1  0  0  0  0  0  0  0  0  0
    2.1997   -2.5170    0.4371 C   0  0  1  0  0  0  0  0  0  0  0  0
    2.2422   -1.6649   -1.9229 C   0  0  2  0  0  0  0  0  0  0  0  0
    2.5881   -2.8462   -1.0028 C   0  0  2  0  0  0  0  0  0  0  0  0
    5.2064    1.9896    0.2491 H   0  0  0  0  0  0  0  0  0  0  0  0
    7.0223    3.1075    1.1272 H   0  0  0  0  0  0  0  0  0  0  0  0
    7.3188    6.2033    2.3700 H   0  0  0  0  0  0  0  0  0  0  0  0
    1.4313    1.0702   -1.8738 H   0  0  0  0  0  0  0  0  0  0  0  0
    2.2624   -4.5964    1.1326 H   0  0  0  0  0  0  0  0  0  0  0  0
    3.7494   -3.6686    1.4507 H   0  0  0  0  0  0  0  0  0  0  0  0
    2.4887   -2.3864    2.8954 H   0  0  0  0  0  0  0  0  0  0  0  0
    3.6311   -1.5302   -3.3222 H   0  0  0  0  0  0  0  0  0  0  0  0
    1.4093   -3.8457   -2.2279 H   0  0  0  0  0  0  0  0  0  0  0  0
   -0.3634    0.9575    0.3849 H   0  0  0  0  0  0  0  0  0  0  0  0
    3.8898    5.4392    0.6249 H   0  0  0  0  0  0  0  0  0  0  0  0
    1.5151    6.0615    0.5285 H   0  0  0  0  0  0  0  0  0  0  0  0
   -2.1359    3.0065    0.3008 H   0  0  0  0  0  0  0  0  0  0  0  0
    1.3068   -0.0831    0.2381 H   0  0  0  0  0  0  0  0  0  0  0  0
    3.8549   -0.2914   -1.4776 H   0  0  0  0  0  0  0  0  0  0  0  0
    1.1101   -2.4134    0.5311 H   0  0  0  0  0  0  0  0  0  0  0  0
    1.1550   -1.6090   -2.0578 H   0  0  0  0  0  0  0  0  0  0  0  0
    3.6646   -3.0472   -1.0750 H   0  0  0  0  0  0  0  0  0  0  0  0
  1 12  1  0  0  0  0
  2  3  2  0  0  0  0
  2 14  1  0  0  0  0
  2 27  1  0  0  0  0
  3  4  1  0  0  0  0
  3 28  1  0  0  0  0
  4  5  1  0  0  0  0
  4  6  2  0  0  0  0
  5 29  1  0  0  0  0
  7 30  1  0  0  0  0
  8  9  1  0  0  0  0
  8 31  1  0  0  0  0
  8 32  1  0  0  0  0
  9 33  1  0  0  0  0
 10 34  1  0  0  0  0
 11 35  1  0  0  0  0
 12 13  1  0  0  0  0
 12 14  2  0  0  0  0
 13 15  2  0  0  0  0
 13 16  1  0  0  0  0
 14 17  1  0  0  0  0
 15 18  1  0  0  0  0
 15 19  1  0  0  0  0
 16 20  2  0  0  0  0
 16 36  1  0  0  0  0
 17 18  2  0  0  0  0
 17 37  1  0  0  0  0
 18 38  1  0  0  0  0
 19 20  1  0  0  0  0
 20 39  1  0  0  0  0
 21 22  1  0  0  0  0
 21 23  1  0  0  0  0
 21 40  1  1  0  0  0
 21  1  1  0  0  0  0
 22 24  1  0  0  0  0
 23  7  1  0  0  0  0
 23 25  1  0  0  0  0
 23 41  1  6  0  0  0
 24  8  1  0  0  0  0
 24 26  1  0  0  0  0
 24 42  1  1  0  0  0
 25 10  1  0  0  0  0
 25 26  1  0  0  0  0
 25 43  1  6  0  0  0
 26 11  1  0  0  0  0
 26 44  1  6  0  0  0
M  END
>  <Mol_ID>
10116

>  <Formula>
C17H18O9

>  <MolWeight>
366.31942

>  <Cat>
S0961

>  <Name>
Isopsoralenoside

>  <Synonyms>
NA

>  <Target>
anti-inflammatory

>  <Form>
Free Base

>  <CAS>
905954-18-9

>  <URL>
https://www.selleckchem.com/products/isopsoralenoside.html

$$$$
