Isophorone
 OpenBabel08302521293D

 24 24  0  0  0  0  0  0  0  0999 V2000
    0.8693    0.2890    0.1166 O   0  0  0  0  0  0  0  0  0  0  0  0
    4.2758   -1.2874    0.0894 C   0  0  0  0  0  0  0  0  0  0  0  0
    5.0493    0.0576    0.0328 C   0  0  0  0  0  0  0  0  0  0  0  0
    2.7348   -1.1951   -0.0138 C   0  0  0  0  0  0  0  0  0  0  0  0
    4.6394   -2.0035    1.4102 C   0  0  0  0  0  0  0  0  0  0  0  0
    4.7777   -2.1728   -1.0756 C   0  0  0  0  0  0  0  0  0  0  0  0
    4.2561    1.3293    0.0658 C   0  0  0  0  0  0  0  0  0  0  0  0
    2.0920    0.1661    0.0798 C   0  0  0  0  0  0  0  0  0  0  0  0
    2.9211    1.3790    0.0864 C   0  0  0  0  0  0  0  0  0  0  0  0
    5.0760    2.5912    0.0629 C   0  0  0  0  0  0  0  0  0  0  0  0
    5.7629    0.0994    0.8676 H   0  0  0  0  0  0  0  0  0  0  0  0
    5.6705    0.0893   -0.8718 H   0  0  0  0  0  0  0  0  0  0  0  0
    2.3905   -1.6172   -0.9667 H   0  0  0  0  0  0  0  0  0  0  0  0
    2.2716   -1.8011    0.7749 H   0  0  0  0  0  0  0  0  0  0  0  0
    4.1755   -2.9948    1.4692 H   0  0  0  0  0  0  0  0  0  0  0  0
    5.7230   -2.1465    1.5008 H   0  0  0  0  0  0  0  0  0  0  0  0
    4.3038   -1.4214    2.2756 H   0  0  0  0  0  0  0  0  0  0  0  0
    4.5677   -1.6971   -2.0411 H   0  0  0  0  0  0  0  0  0  0  0  0
    5.8581   -2.3397   -1.0149 H   0  0  0  0  0  0  0  0  0  0  0  0
    4.2868   -3.1525   -1.0743 H   0  0  0  0  0  0  0  0  0  0  0  0
    2.3713    2.3153    0.1010 H   0  0  0  0  0  0  0  0  0  0  0  0
    5.7154    2.6281    0.9508 H   0  0  0  0  0  0  0  0  0  0  0  0
    5.7136    2.6273   -0.8267 H   0  0  0  0  0  0  0  0  0  0  0  0
    4.4518    3.4909    0.0624 H   0  0  0  0  0  0  0  0  0  0  0  0
  1  8  2  0  0  0  0
  2  3  1  0  0  0  0
  2  4  1  0  0  0  0
  2  5  1  0  0  0  0
  2  6  1  0  0  0  0
  3  7  1  0  0  0  0
  3 11  1  0  0  0  0
  3 12  1  0  0  0  0
  4  8  1  0  0  0  0
  4 13  1  0  0  0  0
  4 14  1  0  0  0  0
  5 15  1  0  0  0  0
  5 16  1  0  0  0  0
  5 17  1  0  0  0  0
  6 18  1  0  0  0  0
  6 19  1  0  0  0  0
  6 20  1  0  0  0  0
  7  9  2  0  0  0  0
  7 10  1  0  0  0  0
  8  9  1  0  0  0  0
  9 21  1  0  0  0  0
 10 22  1  0  0  0  0
 10 23  1  0  0  0  0
 10 24  1  0  0  0  0
M  END
>  <Mol_ID>
5434

>  <Formula>
C9H14O

>  <MolWeight>
138.20686

>  <Cat>
S2998

>  <Name>
Isophorone

>  <Synonyms>
IPHO

>  <Target>
Others

>  <Form>
Free Base

>  <CAS>
78-59-1

>  <URL>
https://www.selleckchem.com/products/isophorone.html

$$$$
