Isosakuranin
 OpenBabel08302521463D

 56 59  0  0  1  0  0  0  0  0999 V2000
  -11.8527   -3.6217   -0.6377 O   0  0  0  0  0  0  0  0  0  0  0  0
   -9.7022   -5.0826   -1.0357 O   0  0  0  0  0  0  0  0  0  0  0  0
   -5.5400   -3.1070   -0.0520 O   0  0  0  0  0  0  0  0  0  0  0  0
   -2.9393   -2.6500    1.2653 O   0  0  0  0  0  0  0  0  0  0  0  0
  -12.9595    4.4584    2.5324 O   0  0  0  0  0  0  0  0  0  0  0  0
  -13.8754    5.2802    1.8195 C   0  0  0  0  0  0  0  0  0  0  0  0
   -4.8716    0.5902   -2.9807 C   0  0  0  0  0  0  0  0  0  0  0  0
   -6.2724    0.8550   -2.9000 O   0  0  0  0  0  0  0  0  0  0  0  0
   -1.0212   -1.3017   -0.5083 O   0  0  0  0  0  0  0  0  0  0  0  0
   -2.1594    0.8985   -1.9978 O   0  0  0  0  0  0  0  0  0  0  0  0
   -8.9664   -1.7418    0.3352 C   0  0  0  0  0  0  0  0  0  0  0  0
   -9.6994   -2.8190   -0.1559 C   0  0  0  0  0  0  0  0  0  0  0  0
   -9.5210   -0.5627    0.7556 O   0  0  0  0  0  0  0  0  0  0  0  0
   -7.5799   -1.8353    0.4450 C   0  0  0  0  0  0  0  0  0  0  0  0
  -11.1692   -2.7018   -0.1772 C   0  0  0  0  0  0  0  0  0  0  0  0
   -9.0403   -3.9805   -0.5674 C   0  0  0  0  0  0  0  0  0  0  0  0
  -10.8143   -0.2942    0.1887 C   0  0  1  0  0  0  0  0  0  0  0  0
   -6.9067   -2.9640   -0.0295 C   0  0  0  0  0  0  0  0  0  0  0  0
  -11.7591   -1.4680    0.4443 C   0  0  0  0  0  0  0  0  0  0  0  0
   -7.6477   -4.0506   -0.5102 C   0  0  0  0  0  0  0  0  0  0  0  0
  -11.3487    1.0053    0.7810 C   0  0  0  0  0  0  0  0  0  0  0  0
  -12.2059    1.8207    0.0235 C   0  0  0  0  0  0  0  0  0  0  0  0
  -11.0314    1.4185    2.0841 C   0  0  0  0  0  0  0  0  0  0  0  0
  -12.7596    2.9911    0.5629 C   0  0  0  0  0  0  0  0  0  0  0  0
  -11.5897    2.5849    2.6235 C   0  0  0  0  0  0  0  0  0  0  0  0
  -12.4659    3.3658    1.8733 C   0  0  0  0  0  0  0  0  0  0  0  0
   -4.7836   -1.8881   -0.2030 C   0  0  2  0  0  0  0  0  0  0  0  0
   -5.0815   -1.2727   -1.4634 O   0  0  0  0  0  0  0  0  0  0  0  0
   -3.2655   -2.1953   -0.0620 C   0  0  1  0  0  0  0  0  0  0  0  0
   -4.3805   -0.0381   -1.6685 C   0  0  1  0  0  0  0  0  0  0  0  0
   -2.4140   -0.9572   -0.4116 C   0  0  2  0  0  0  0  0  0  0  0  0
   -2.8756   -0.3064   -1.7252 C   0  0  2  0  0  0  0  0  0  0  0  0
  -10.6687   -4.9011   -1.0061 H   0  0  0  0  0  0  0  0  0  0  0  0
   -3.2128   -1.9839    1.9169 H   0  0  0  0  0  0  0  0  0  0  0  0
  -13.4091    5.7026    0.9238 H   0  0  0  0  0  0  0  0  0  0  0  0
  -14.7885    4.7293    1.5691 H   0  0  0  0  0  0  0  0  0  0  0  0
  -14.1560    6.1130    2.4718 H   0  0  0  0  0  0  0  0  0  0  0  0
   -4.3660    1.5394   -3.1852 H   0  0  0  0  0  0  0  0  0  0  0  0
   -4.7095   -0.0843   -3.8277 H   0  0  0  0  0  0  0  0  0  0  0  0
   -6.6959   -0.0076   -2.7321 H   0  0  0  0  0  0  0  0  0  0  0  0
   -0.9231   -2.0312   -1.1479 H   0  0  0  0  0  0  0  0  0  0  0  0
   -2.0119    1.3799   -1.1655 H   0  0  0  0  0  0  0  0  0  0  0  0
   -7.0597   -1.0007    0.9004 H   0  0  0  0  0  0  0  0  0  0  0  0
  -10.6797   -0.1390   -0.8919 H   0  0  0  0  0  0  0  0  0  0  0  0
  -12.7434   -1.2841    0.0029 H   0  0  0  0  0  0  0  0  0  0  0  0
  -11.8764   -1.6724    1.5136 H   0  0  0  0  0  0  0  0  0  0  0  0
   -7.1417   -4.9495   -0.8503 H   0  0  0  0  0  0  0  0  0  0  0  0
  -12.4563    1.5530   -1.0011 H   0  0  0  0  0  0  0  0  0  0  0  0
  -10.3457    0.8397    2.7012 H   0  0  0  0  0  0  0  0  0  0  0  0
  -13.4229    3.5759   -0.0653 H   0  0  0  0  0  0  0  0  0  0  0  0
  -11.3390    2.8789    3.6393 H   0  0  0  0  0  0  0  0  0  0  0  0
   -5.0462   -1.2120    0.6158 H   0  0  0  0  0  0  0  0  0  0  0  0
   -2.9767   -3.0157   -0.7269 H   0  0  0  0  0  0  0  0  0  0  0  0
   -4.6323    0.6502   -0.8495 H   0  0  0  0  0  0  0  0  0  0  0  0
   -2.4615   -0.2235    0.4045 H   0  0  0  0  0  0  0  0  0  0  0  0
   -2.6547   -0.9965   -2.5488 H   0  0  0  0  0  0  0  0  0  0  0  0
  1 15  2  0  0  0  0
  2 16  1  0  0  0  0
  2 33  1  0  0  0  0
  3 18  1  0  0  0  0
  4 34  1  0  0  0  0
  5  6  1  0  0  0  0
  5 26  1  0  0  0  0
  6 35  1  0  0  0  0
  6 36  1  0  0  0  0
  6 37  1  0  0  0  0
  7  8  1  0  0  0  0
  7 38  1  0  0  0  0
  7 39  1  0  0  0  0
  8 40  1  0  0  0  0
  9 41  1  0  0  0  0
 10 42  1  0  0  0  0
 11 12  2  0  0  0  0
 11 13  1  0  0  0  0
 11 14  1  0  0  0  0
 12 15  1  0  0  0  0
 12 16  1  0  0  0  0
 13 17  1  0  0  0  0
 14 18  2  0  0  0  0
 14 43  1  0  0  0  0
 15 19  1  0  0  0  0
 16 20  2  0  0  0  0
 17 19  1  0  0  0  0
 17 44  1  6  0  0  0
 17 21  1  0  0  0  0
 18 20  1  0  0  0  0
 19 45  1  0  0  0  0
 19 46  1  0  0  0  0
 20 47  1  0  0  0  0
 21 22  2  0  0  0  0
 21 23  1  0  0  0  0
 22 24  1  0  0  0  0
 22 48  1  0  0  0  0
 23 25  2  0  0  0  0
 23 49  1  0  0  0  0
 24 26  2  0  0  0  0
 24 50  1  0  0  0  0
 25 26  1  0  0  0  0
 25 51  1  0  0  0  0
 27 28  1  0  0  0  0
 27 29  1  0  0  0  0
 27 52  1  1  0  0  0
 27  3  1  0  0  0  0
 28 30  1  0  0  0  0
 29  4  1  0  0  0  0
 29 31  1  0  0  0  0
 29 53  1  6  0  0  0
 30  7  1  0  0  0  0
 30 32  1  0  0  0  0
 30 54  1  1  0  0  0
 31  9  1  0  0  0  0
 31 32  1  0  0  0  0
 31 55  1  1  0  0  0
 32 10  1  0  0  0  0
 32 56  1  6  0  0  0
M  END
>  <Mol_ID>
9746

>  <Formula>
C22H24O10

>  <MolWeight>
448.41996

>  <Cat>
E2219

>  <Name>
Isosakuranin

>  <Synonyms>
N/A

>  <Target>
others

>  <Form>
free base

>  <CAS>
491-69-0

>  <URL>
https://www.selleckchem.com/products/isosakuranin.html

$$$$
