isovaleramide.cdx
 OpenBabel08302522043D

 18 17  0  0  0  0  0  0  0  0999 V2000
    1.0073   -0.0144    0.0116 C   0  0  0  0  0  0  0  0  0  0  0  0
    0.4743   -1.4427   -0.1065 C   0  0  0  0  0  0  0  0  0  0  0  0
    1.0021   -2.3616    1.0046 C   0  0  0  0  0  0  0  0  0  0  0  0
   -1.0517   -1.4460   -0.1865 C   0  0  0  0  0  0  0  0  0  0  0  0
    0.6409   -1.9236    2.4098 C   0  0  0  0  0  0  0  0  0  0  0  0
   -0.5342   -2.4134    2.8950 N   0  0  0  0  0  0  0  0  0  0  0  0
    1.3291   -1.1632    3.0780 O   0  0  0  0  0  0  0  0  0  0  0  0
    0.6165    0.4950    0.8981 H   0  0  0  0  0  0  0  0  0  0  0  0
    0.7161    0.5764   -0.8641 H   0  0  0  0  0  0  0  0  0  0  0  0
    2.1009   -0.0098    0.0658 H   0  0  0  0  0  0  0  0  0  0  0  0
    0.8487   -1.8471   -1.0568 H   0  0  0  0  0  0  0  0  0  0  0  0
    0.6297   -3.3816    0.8431 H   0  0  0  0  0  0  0  0  0  0  0  0
    2.0956   -2.4283    0.9548 H   0  0  0  0  0  0  0  0  0  0  0  0
   -1.3969   -0.8273   -1.0217 H   0  0  0  0  0  0  0  0  0  0  0  0
   -1.4282   -2.4621   -0.3467 H   0  0  0  0  0  0  0  0  0  0  0  0
   -1.5083   -1.0517    0.7262 H   0  0  0  0  0  0  0  0  0  0  0  0
   -0.7819   -2.1642    3.8440 H   0  0  0  0  0  0  0  0  0  0  0  0
   -1.0679   -3.1315    2.4269 H   0  0  0  0  0  0  0  0  0  0  0  0
  1  2  1  0  0  0  0
  1  8  1  0  0  0  0
  1  9  1  0  0  0  0
  1 10  1  0  0  0  0
  2  3  1  0  0  0  0
  2  4  1  0  0  0  0
  2 11  1  0  0  0  0
  3  5  1  0  0  0  0
  3 12  1  0  0  0  0
  3 13  1  0  0  0  0
  4 14  1  0  0  0  0
  4 15  1  0  0  0  0
  4 16  1  0  0  0  0
  5  6  1  0  0  0  0
  5  7  2  0  0  0  0
  6 17  1  0  0  0  0
  6 18  1  0  0  0  0
M  END
>  <Mol_ID>
1286

>  <Formula>
C5H11NO

>  <MolWeight>
101.14694

>  <Cat>
S4116

>  <Name>
Isovaleramide

>  <Synonyms>
3-Methylbutanamide

>  <Target>
Dehydrogenase

>  <Form>
free base

>  <CAS>
541-46-8

>  <URL>
http://selleckchem.com/products/isovaleramide.html

$$$$
