Isoxazole 9 (ISX-9).cdx
 OpenBabel08302519563D

 26 28  0  0  0  0  0  0  0  0999 V2000
   -0.6484    0.9234   -0.0278 C   0  0  0  0  0  0  0  0  0  0  0  0
   -1.2357   -0.3195   -0.0283 C   0  0  0  0  0  0  0  0  0  0  0  0
   -0.1877   -1.2607   -0.1091 C   0  0  0  0  0  0  0  0  0  0  0  0
    1.0007   -0.6410   -0.1893 N   0  0  0  0  0  0  0  0  0  0  0  0
    0.7086    0.7260   -0.1375 O   0  0  0  0  0  0  0  0  0  0  0  0
   -1.2931    2.2081    0.0804 C   0  0  0  0  0  0  0  0  0  0  0  0
   -0.4050   -2.7063   -0.1301 C   0  0  0  0  0  0  0  0  0  0  0  0
    0.7066   -3.5243   -0.2156 N   0  0  0  0  0  0  0  0  0  0  0  0
   -1.5455   -3.1655   -0.0812 O   0  0  0  0  0  0  0  0  0  0  0  0
    0.5303   -4.9359   -0.3836 C   0  0  0  0  0  0  0  0  0  0  0  0
    0.4046   -5.8403    0.8159 C   0  0  0  0  0  0  0  0  0  0  0  0
    1.6024   -5.9386   -0.0862 C   0  0  0  0  0  0  0  0  0  0  0  0
   -0.7213    3.4651    0.0320 C   0  0  0  0  0  0  0  0  0  0  0  0
   -1.6823    4.5120    0.2082 C   0  0  0  0  0  0  0  0  0  0  0  0
   -2.9564    4.0254    0.3746 C   0  0  0  0  0  0  0  0  0  0  0  0
   -2.9974    2.3233    0.3141 S   0  0  0  0  0  0  0  0  0  0  0  0
   -2.2914   -0.5454    0.0377 H   0  0  0  0  0  0  0  0  0  0  0  0
    1.6195   -3.0941   -0.3133 H   0  0  0  0  0  0  0  0  0  0  0  0
   -0.1325   -5.1685   -1.2166 H   0  0  0  0  0  0  0  0  0  0  0  0
    0.5437   -5.4178    1.8041 H   0  0  0  0  0  0  0  0  0  0  0  0
   -0.3426   -6.6235    0.7726 H   0  0  0  0  0  0  0  0  0  0  0  0
    1.6688   -6.8038   -0.7365 H   0  0  0  0  0  0  0  0  0  0  0  0
    2.5528   -5.5981    0.3040 H   0  0  0  0  0  0  0  0  0  0  0  0
    0.3384    3.6376   -0.1152 H   0  0  0  0  0  0  0  0  0  0  0  0
   -1.4483    5.5699    0.2147 H   0  0  0  0  0  0  0  0  0  0  0  0
   -3.8706    4.5822    0.5357 H   0  0  0  0  0  0  0  0  0  0  0  0
  1  2  2  0  0  0  0
  1  6  1  0  0  0  0
  2  3  1  0  0  0  0
  2 17  1  0  0  0  0
  3  4  2  0  0  0  0
  3  7  1  0  0  0  0
  4  5  1  0  0  0  0
  5  1  1  0  0  0  0
  6 13  2  0  0  0  0
  7  8  1  0  0  0  0
  7  9  2  0  0  0  0
  8 10  1  0  0  0  0
  8 18  1  0  0  0  0
 10 11  1  0  0  0  0
 10 19  1  0  0  0  0
 11 12  1  0  0  0  0
 11 20  1  0  0  0  0
 11 21  1  0  0  0  0
 12 10  1  0  0  0  0
 12 22  1  0  0  0  0
 12 23  1  0  0  0  0
 13 14  1  0  0  0  0
 13 24  1  0  0  0  0
 14 15  2  0  0  0  0
 14 25  1  0  0  0  0
 15 16  1  0  0  0  0
 15 26  1  0  0  0  0
 16  6  1  0  0  0  0
M  END
>  <Mol_ID>
2192

>  <Formula>
C11H10N2O2S

>  <MolWeight>
234.2743

>  <Cat>
S7914

>  <Name>
Isoxazole 9 (ISX-9)

>  <Synonyms>
N/A

>  <Target>
TGF-beta/Smad,Wnt/beta-catenin

>  <Form>
free base

>  <CAS>
832115-62-5

>  <URL>
http://selleckchem.com/products/isoxazole-9-isx-9.html

$$$$
