Isoxsuprine hydrochloride
 OpenBabel08302520323D

 45 46  0  0  0  0  0  0  0  0999 V2000
    1.0291   -0.7111    2.1402 C   0  0  3  0  0  0  0  0  0  0  0  0
    0.5503    0.5758    1.3765 C   0  0  3  0  0  0  0  0  0  0  0  0
    0.8967    0.4216   -0.1231 C   0  0  0  0  0  0  0  0  0  0  0  0
    2.4519   -0.8564    1.9579 O   0  0  0  0  0  0  0  0  0  0  0  0
    0.3271   -2.0211    1.8150 C   0  0  0  0  0  0  0  0  0  0  0  0
    0.9422   -3.2460    2.1139 C   0  0  0  0  0  0  0  0  0  0  0  0
    0.2953   -4.4622    1.8699 C   0  0  0  0  0  0  0  0  0  0  0  0
   -0.9876   -4.4654    1.3376 C   0  0  0  0  0  0  0  0  0  0  0  0
   -1.6304   -3.2784    1.0462 C   0  0  0  0  0  0  0  0  0  0  0  0
   -0.9758   -2.0737    1.2835 C   0  0  0  0  0  0  0  0  0  0  0  0
   -1.6652   -5.6195    1.0852 O   0  0  0  0  0  0  0  0  0  0  0  0
   -0.8739    0.9600    1.4724 N   0  0  0  0  0  0  0  0  0  0  0  0
   -1.5851    0.2485    3.8449 C   0  0  0  0  0  0  0  0  0  0  0  0
   -1.4676    1.3352    2.7689 C   0  0  3  0  0  0  0  0  0  0  0  0
   -0.8598    2.6068    3.3751 C   0  0  0  0  0  0  0  0  0  0  0  0
   -1.0326    3.6991    2.4662 O   0  0  0  0  0  0  0  0  0  0  0  0
   -0.7926    4.9376    2.9987 C   0  0  0  0  0  0  0  0  0  0  0  0
   -0.1841    5.1762    4.2339 C   0  0  0  0  0  0  0  0  0  0  0  0
   -0.0159    6.4800    4.6968 C   0  0  0  0  0  0  0  0  0  0  0  0
   -0.4391    7.5555    3.9192 C   0  0  0  0  0  0  0  0  0  0  0  0
   -1.0246    7.3255    2.6758 C   0  0  0  0  0  0  0  0  0  0  0  0
   -1.1998    6.0164    2.2165 C   0  0  0  0  0  0  0  0  0  0  0  0
    0.9309   -0.5398    3.2142 H   0  0  0  0  0  0  0  0  0  0  0  0
    1.1603    1.4186    1.7267 H   0  0  0  0  0  0  0  0  0  0  0  0
    0.2341   -0.2925   -0.6250 H   0  0  0  0  0  0  0  0  0  0  0  0
    0.8146    1.3783   -0.6485 H   0  0  0  0  0  0  0  0  0  0  0  0
    1.9234    0.0648   -0.2659 H   0  0  0  0  0  0  0  0  0  0  0  0
    2.8722   -0.0510    2.3012 H   0  0  0  0  0  0  0  0  0  0  0  0
    1.9476   -3.2544    2.5411 H   0  0  0  0  0  0  0  0  0  0  0  0
    0.8088   -5.3878    2.1047 H   0  0  0  0  0  0  0  0  0  0  0  0
   -2.6360   -3.2735    0.6375 H   0  0  0  0  0  0  0  0  0  0  0  0
   -1.5324   -1.1783    1.0391 H   0  0  0  0  0  0  0  0  0  0  0  0
   -1.0772   -6.3625    1.2963 H   0  0  0  0  0  0  0  0  0  0  0  0
   -1.0406    1.7360    0.8253 H   0  0  0  0  0  0  0  0  0  0  0  0
   -0.6267   -0.0920    4.2316 H   0  0  0  0  0  0  0  0  0  0  0  0
   -2.1208    0.6412    4.7181 H   0  0  0  0  0  0  0  0  0  0  0  0
   -2.1548   -0.6146    3.4892 H   0  0  0  0  0  0  0  0  0  0  0  0
   -2.5070    1.5821    2.5113 H   0  0  0  0  0  0  0  0  0  0  0  0
   -1.3901    2.8179    4.3126 H   0  0  0  0  0  0  0  0  0  0  0  0
    0.2066    2.4585    3.5796 H   0  0  0  0  0  0  0  0  0  0  0  0
    0.1696    4.3679    4.8650 H   0  0  0  0  0  0  0  0  0  0  0  0
    0.4448    6.6519    5.6661 H   0  0  0  0  0  0  0  0  0  0  0  0
   -0.3102    8.5698    4.2850 H   0  0  0  0  0  0  0  0  0  0  0  0
   -1.3479    8.1646    2.0651 H   0  0  0  0  0  0  0  0  0  0  0  0
   -1.6681    5.8450    1.2502 H   0  0  0  0  0  0  0  0  0  0  0  0
  1  2  1  0  0  0  0
  1  4  1  0  0  0  0
  1  5  1  0  0  0  0
  1 23  1  0  0  0  0
  2  3  1  0  0  0  0
  2 12  1  0  0  0  0
  2 24  1  0  0  0  0
  3 25  1  0  0  0  0
  3 26  1  0  0  0  0
  3 27  1  0  0  0  0
  4 28  1  0  0  0  0
  5  6  2  0  0  0  0
  5 10  1  0  0  0  0
  6  7  1  0  0  0  0
  6 29  1  0  0  0  0
  7  8  2  0  0  0  0
  7 30  1  0  0  0  0
  8  9  1  0  0  0  0
  8 11  1  0  0  0  0
  9 10  2  0  0  0  0
  9 31  1  0  0  0  0
 10 32  1  0  0  0  0
 11 33  1  0  0  0  0
 12 14  1  0  0  0  0
 12 34  1  0  0  0  0
 13 14  1  0  0  0  0
 13 35  1  0  0  0  0
 13 36  1  0  0  0  0
 13 37  1  0  0  0  0
 14 15  1  0  0  0  0
 14 38  1  0  0  0  0
 15 16  1  0  0  0  0
 15 39  1  0  0  0  0
 15 40  1  0  0  0  0
 16 17  1  0  0  0  0
 17 18  2  0  0  0  0
 17 22  1  0  0  0  0
 18 19  1  0  0  0  0
 18 41  1  0  0  0  0
 19 20  2  0  0  0  0
 19 42  1  0  0  0  0
 20 21  1  0  0  0  0
 20 43  1  0  0  0  0
 21 22  2  0  0  0  0
 21 44  1  0  0  0  0
 22 45  1  0  0  0  0
M  END
>  <Mol_ID>
3356

>  <Formula>
C18H24ClNO3

>  <MolWeight>
337.84106

>  <Cat>
S5669

>  <Name>
Isoxsuprine hydrochloride

>  <Synonyms>
N/A

>  <Target>
Adrenergic Receptor

>  <Form>
hydrochloride

>  <CAS>
579-56-6

>  <URL>
http://www.selleckchem.com/products/isoxsuprine-hydrochloride.html

$$$$
