Isuzinaxib (APX-115 free base)
 OpenBabel08302521243D

 38 40  0  0  0  0  0  0  0  0999 V2000
    0.9668   -0.1949    0.0728 O   0  0  0  0  0  0  0  0  0  0  0  0
    2.9827    1.0573   -0.1272 N   0  0  0  0  0  0  0  0  0  0  0  0
    4.3180    0.6659   -0.2837 N   0  0  0  0  0  0  0  0  0  0  0  0
    1.2802    2.6951    0.0941 N   0  0  0  0  0  0  0  0  0  0  0  0
    3.1003   -1.2507   -0.0682 C   0  0  0  0  0  0  0  0  0  0  0  0
    4.3294   -0.7154   -0.1710 C   0  0  0  0  0  0  0  0  0  0  0  0
    2.5875   -2.6387    0.0399 C   0  0  0  0  0  0  0  0  0  0  0  0
    2.1752   -0.0729   -0.0374 C   0  0  0  0  0  0  0  0  0  0  0  0
    2.3435   -3.0649    1.4888 C   0  0  0  0  0  0  0  0  0  0  0  0
    5.6259   -1.3850   -0.0882 C   0  0  0  0  0  0  0  0  0  0  0  0
    2.5798    2.4068   -0.1230 C   0  0  0  0  0  0  0  0  0  0  0  0
    1.6735   -4.4301    1.5588 C   0  0  0  0  0  0  0  0  0  0  0  0
    6.2262   -1.9487   -1.2188 C   0  0  0  0  0  0  0  0  0  0  0  0
    6.3396   -1.3383    1.1171 C   0  0  0  0  0  0  0  0  0  0  0  0
    3.5186    3.4226   -0.3205 C   0  0  0  0  0  0  0  0  0  0  0  0
    7.5428   -2.4178   -1.1532 C   0  0  0  0  0  0  0  0  0  0  0  0
    7.6549   -1.7996    1.1786 C   0  0  0  0  0  0  0  0  0  0  0  0
    8.2605   -2.3256    0.0396 C   0  0  0  0  0  0  0  0  0  0  0  0
    3.1042    4.7553   -0.2947 C   0  0  0  0  0  0  0  0  0  0  0  0
    0.8976    3.9892    0.1101 C   0  0  0  0  0  0  0  0  0  0  0  0
    1.7660    5.0468   -0.0761 C   0  0  0  0  0  0  0  0  0  0  0  0
    4.9660    1.0974    0.3734 H   0  0  0  0  0  0  0  0  0  0  0  0
    1.6523   -2.7202   -0.5297 H   0  0  0  0  0  0  0  0  0  0  0  0
    3.2873   -3.3377   -0.4345 H   0  0  0  0  0  0  0  0  0  0  0  0
    3.2996   -3.1050    2.0238 H   0  0  0  0  0  0  0  0  0  0  0  0
    1.7139   -2.3341    2.0112 H   0  0  0  0  0  0  0  0  0  0  0  0
    2.1630   -5.1503    0.8957 H   0  0  0  0  0  0  0  0  0  0  0  0
    1.7150   -4.8233    2.5794 H   0  0  0  0  0  0  0  0  0  0  0  0
    0.6200   -4.3591    1.2682 H   0  0  0  0  0  0  0  0  0  0  0  0
    5.6915   -1.9921   -2.1655 H   0  0  0  0  0  0  0  0  0  0  0  0
    5.8834   -0.9152    2.0092 H   0  0  0  0  0  0  0  0  0  0  0  0
    4.5631    3.2024   -0.5086 H   0  0  0  0  0  0  0  0  0  0  0  0
    8.0173   -2.8313   -2.0395 H   0  0  0  0  0  0  0  0  0  0  0  0
    8.2126   -1.7283    2.1091 H   0  0  0  0  0  0  0  0  0  0  0  0
    9.2952   -2.6575    0.0796 H   0  0  0  0  0  0  0  0  0  0  0  0
    3.8213    5.5559   -0.4506 H   0  0  0  0  0  0  0  0  0  0  0  0
   -0.1618    4.1511    0.2822 H   0  0  0  0  0  0  0  0  0  0  0  0
    1.4060    6.0690   -0.0556 H   0  0  0  0  0  0  0  0  0  0  0  0
  1  8  2  0  0  0  0
  2  3  1  0  0  0  0
  2  8  1  0  0  0  0
  2 11  1  0  0  0  0
  3  6  1  0  0  0  0
  3 22  1  0  0  0  0
  4 11  2  0  0  0  0
  4 20  1  0  0  0  0
  5  6  2  0  0  0  0
  5  7  1  0  0  0  0
  5  8  1  0  0  0  0
  6 10  1  0  0  0  0
  7  9  1  0  0  0  0
  7 23  1  0  0  0  0
  7 24  1  0  0  0  0
  9 12  1  0  0  0  0
  9 25  1  0  0  0  0
  9 26  1  0  0  0  0
 10 13  2  0  0  0  0
 10 14  1  0  0  0  0
 11 15  1  0  0  0  0
 12 27  1  0  0  0  0
 12 28  1  0  0  0  0
 12 29  1  0  0  0  0
 13 16  1  0  0  0  0
 13 30  1  0  0  0  0
 14 17  2  0  0  0  0
 14 31  1  0  0  0  0
 15 19  2  0  0  0  0
 15 32  1  0  0  0  0
 16 18  2  0  0  0  0
 16 33  1  0  0  0  0
 17 18  1  0  0  0  0
 17 34  1  0  0  0  0
 18 35  1  0  0  0  0
 19 21  1  0  0  0  0
 19 36  1  0  0  0  0
 20 21  2  0  0  0  0
 20 37  1  0  0  0  0
 21 38  1  0  0  0  0
M  END
>  <Mol_ID>
5084

>  <Formula>
C17H17N3O

>  <MolWeight>
279.33638

>  <Cat>
S0777

>  <Name>
Isuzinaxib (APX-115 free base)

>  <Synonyms>
Ewha-18278 free base

>  <Target>
CCR,Interleukins,NADPH-oxidase,TNF-alpha

>  <Form>
free base

>  <CAS>
1270084-92-8

>  <URL>
http://www.selleckchem.com/products/apx-115-free-base.html

$$$$
