IWP-O1.cdx
 OpenBabel08302520433D

 53 57  0  0  0  0  0  0  0  0999 V2000
    3.1612   -0.2210    0.0178 C   0  0  0  0  0  0  0  0  0  0  0  0
    3.6513   -1.4043    0.5738 C   0  0  0  0  0  0  0  0  0  0  0  0
    4.4670   -1.3575    1.6959 C   0  0  0  0  0  0  0  0  0  0  0  0
    4.8408   -0.1264    2.2229 C   0  0  0  0  0  0  0  0  0  0  0  0
    4.4032    1.0581    1.6194 C   0  0  0  0  0  0  0  0  0  0  0  0
    3.5110    1.0371    0.5337 C   0  0  0  0  0  0  0  0  0  0  0  0
    2.8831    2.2765    0.0367 C   0  0  0  0  0  0  0  0  0  0  0  0
    2.5907    2.5596   -1.2976 N   0  0  0  0  0  0  0  0  0  0  0  0
    1.9879    3.7595   -1.4226 N   0  0  0  0  0  0  0  0  0  0  0  0
    1.9081    4.3100   -0.2249 N   0  0  0  0  0  0  0  0  0  0  0  0
    2.4226    3.4292    0.6879 C   0  0  0  0  0  0  0  0  0  0  0  0
    2.8080    1.7606   -2.4802 C   0  0  0  0  0  0  0  0  0  0  0  0
    2.4390    3.7514    2.1071 C   0  0  0  0  0  0  0  0  0  0  0  0
    2.3305    2.3777   -3.7752 C   0  0  0  0  0  0  0  0  0  0  0  0
    0.9979    2.1134   -4.0573 N   0  0  0  0  0  0  0  0  0  0  0  0
    3.0951    3.0163   -4.4986 O   0  0  0  0  0  0  0  0  0  0  0  0
    0.3650    2.7320   -5.1408 C   0  0  0  0  0  0  0  0  0  0  0  0
   -0.7552    3.4130   -4.8492 N   0  0  0  0  0  0  0  0  0  0  0  0
   -1.3446    4.0816   -5.8751 C   0  0  0  0  0  0  0  0  0  0  0  0
   -0.9396    4.0340   -7.2126 C   0  0  0  0  0  0  0  0  0  0  0  0
    0.1841    3.2363   -7.4678 C   0  0  0  0  0  0  0  0  0  0  0  0
    0.8551    2.5946   -6.4277 C   0  0  0  0  0  0  0  0  0  0  0  0
   -1.6469    4.7596   -8.2904 C   0  0  0  0  0  0  0  0  0  0  0  0
   -2.2520    6.0098   -8.0683 C   0  0  0  0  0  0  0  0  0  0  0  0
   -2.9242    6.6877   -9.0920 C   0  0  0  0  0  0  0  0  0  0  0  0
   -2.9974    6.1351  -10.3664 C   0  0  0  0  0  0  0  0  0  0  0  0
   -2.4015    4.9045  -10.6176 C   0  0  0  0  0  0  0  0  0  0  0  0
   -1.7395    4.2253   -9.5906 C   0  0  0  0  0  0  0  0  0  0  0  0
    2.2872    2.7764    3.0963 C   0  0  0  0  0  0  0  0  0  0  0  0
    2.4009    3.1451    4.4247 C   0  0  0  0  0  0  0  0  0  0  0  0
    2.5759    4.4182    4.8293 N   0  0  0  0  0  0  0  0  0  0  0  0
    2.6621    5.3556    3.8681 C   0  0  0  0  0  0  0  0  0  0  0  0
    2.6057    5.0797    2.5144 C   0  0  0  0  0  0  0  0  0  0  0  0
    2.4581   -0.3314   -0.7951 H   0  0  0  0  0  0  0  0  0  0  0  0
    3.3616   -2.3595    0.1464 H   0  0  0  0  0  0  0  0  0  0  0  0
    4.8011   -2.2798    2.1637 H   0  0  0  0  0  0  0  0  0  0  0  0
    5.4568   -0.0832    3.1172 H   0  0  0  0  0  0  0  0  0  0  0  0
    4.7221    2.0005    2.0608 H   0  0  0  0  0  0  0  0  0  0  0  0
    3.8787    1.5440   -2.5507 H   0  0  0  0  0  0  0  0  0  0  0  0
    2.2537    0.8213   -2.3596 H   0  0  0  0  0  0  0  0  0  0  0  0
    0.3783    2.0330   -3.2610 H   0  0  0  0  0  0  0  0  0  0  0  0
   -2.1986    4.6796   -5.5658 H   0  0  0  0  0  0  0  0  0  0  0  0
    0.5693    3.1181   -8.4768 H   0  0  0  0  0  0  0  0  0  0  0  0
    1.7264    1.9833   -6.6337 H   0  0  0  0  0  0  0  0  0  0  0  0
   -2.1975    6.4893   -7.0927 H   0  0  0  0  0  0  0  0  0  0  0  0
   -3.3858    7.6514   -8.8911 H   0  0  0  0  0  0  0  0  0  0  0  0
   -3.5162    6.6622  -11.1622 H   0  0  0  0  0  0  0  0  0  0  0  0
   -2.4523    4.4667  -11.6113 H   0  0  0  0  0  0  0  0  0  0  0  0
   -1.3021    3.2568   -9.8239 H   0  0  0  0  0  0  0  0  0  0  0  0
    2.1189    1.7329    2.8533 H   0  0  0  0  0  0  0  0  0  0  0  0
    2.3480    2.4016    5.2148 H   0  0  0  0  0  0  0  0  0  0  0  0
    2.7767    6.3808    4.2282 H   0  0  0  0  0  0  0  0  0  0  0  0
    2.6915    5.8855    1.7876 H   0  0  0  0  0  0  0  0  0  0  0  0
  1  2  2  0  0  0  0
  1 34  1  0  0  0  0
  2  3  1  0  0  0  0
  2 35  1  0  0  0  0
  3  4  2  0  0  0  0
  3 36  1  0  0  0  0
  4  5  1  0  0  0  0
  4 37  1  0  0  0  0
  5  6  2  0  0  0  0
  5 38  1  0  0  0  0
  6  1  1  0  0  0  0
  6  7  1  0  0  0  0
  7  8  1  0  0  0  0
  8  9  1  0  0  0  0
  8 12  1  0  0  0  0
  9 10  2  0  0  0  0
 10 11  1  0  0  0  0
 11  7  2  0  0  0  0
 11 13  1  0  0  0  0
 12 14  1  0  0  0  0
 12 39  1  0  0  0  0
 12 40  1  0  0  0  0
 13 29  2  0  0  0  0
 14 15  1  0  0  0  0
 14 16  2  0  0  0  0
 15 17  1  0  0  0  0
 15 41  1  0  0  0  0
 17 18  2  0  0  0  0
 18 19  1  0  0  0  0
 19 20  2  0  0  0  0
 19 42  1  0  0  0  0
 20 21  1  0  0  0  0
 20 23  1  0  0  0  0
 21 22  2  0  0  0  0
 21 43  1  0  0  0  0
 22 17  1  0  0  0  0
 22 44  1  0  0  0  0
 23 24  2  0  0  0  0
 24 25  1  0  0  0  0
 24 45  1  0  0  0  0
 25 26  2  0  0  0  0
 25 46  1  0  0  0  0
 26 27  1  0  0  0  0
 26 47  1  0  0  0  0
 27 28  2  0  0  0  0
 27 48  1  0  0  0  0
 28 23  1  0  0  0  0
 28 49  1  0  0  0  0
 29 30  1  0  0  0  0
 29 50  1  0  0  0  0
 30 31  2  0  0  0  0
 30 51  1  0  0  0  0
 31 32  1  0  0  0  0
 32 33  2  0  0  0  0
 32 52  1  0  0  0  0
 33 13  1  0  0  0  0
 33 53  1  0  0  0  0
M  END
>  <Mol_ID>
4198

>  <Formula>
C26H20N6O

>  <MolWeight>
432.4766

>  <Cat>
S8645

>  <Name>
IWP-O1

>  <Synonyms>
N/A

>  <Target>
PORCN

>  <Form>
free base

>  <CAS>
2074607-48-8

>  <URL>
http://selleckchem.com/products/iwp-O1.html

$$$$
