JANEX-1
 OpenBabel08302520143D

 37 39  0  0  0  0  0  0  0  0999 V2000
    2.5473    0.7410    0.0060 C   0  0  0  0  0  0  0  0  0  0  0  0
    2.5304   -0.6520   -0.0232 C   0  0  0  0  0  0  0  0  0  0  0  0
    1.2640   -1.2958   -0.0367 C   0  0  0  0  0  0  0  0  0  0  0  0
    0.0408   -0.6460   -0.0268 C   0  0  0  0  0  0  0  0  0  0  0  0
    0.0453    0.7406   -0.0024 C   0  0  0  0  0  0  0  0  0  0  0  0
    1.2950    1.4084    0.0197 C   0  0  0  0  0  0  0  0  0  0  0  0
   -1.0813   -1.3746   -0.0299 N   0  0  0  0  0  0  0  0  0  0  0  0
   -2.2329   -0.7008    0.0027 C   0  0  0  0  0  0  0  0  0  0  0  0
   -2.3609    0.6227    0.0406 N   0  0  0  0  0  0  0  0  0  0  0  0
   -1.2236    1.3466    0.0435 C   0  0  0  0  0  0  0  0  0  0  0  0
    3.5063    1.7006    0.0443 O   0  0  0  0  0  0  0  0  0  0  0  0
    3.4619   -1.6396   -0.0283 O   0  0  0  0  0  0  0  0  0  0  0  0
    4.8538   -1.4804   -0.0496 C   0  0  0  0  0  0  0  0  0  0  0  0
    4.8918    1.4914   -0.0218 C   0  0  0  0  0  0  0  0  0  0  0  0
   -1.3350    2.7616    0.0782 N   0  0  0  0  0  0  0  0  0  0  0  0
   -2.4300    3.4679    0.6287 C   0  0  0  0  0  0  0  0  0  0  0  0
   -3.0879    2.9941    1.7780 C   0  0  0  0  0  0  0  0  0  0  0  0
   -4.1480    3.6958    2.3493 C   0  0  0  0  0  0  0  0  0  0  0  0
   -4.5456    4.8995    1.7857 C   0  0  0  0  0  0  0  0  0  0  0  0
   -3.8877    5.4131    0.6739 C   0  0  0  0  0  0  0  0  0  0  0  0
   -2.8221    4.7056    0.1056 C   0  0  0  0  0  0  0  0  0  0  0  0
   -5.5832    5.6136    2.3064 O   0  0  0  0  0  0  0  0  0  0  0  0
    1.2397   -2.3874   -0.0454 H   0  0  0  0  0  0  0  0  0  0  0  0
    1.2984    2.4988    0.0723 H   0  0  0  0  0  0  0  0  0  0  0  0
   -3.1480   -1.2829   -0.0012 H   0  0  0  0  0  0  0  0  0  0  0  0
    5.1849   -1.0046   -0.9724 H   0  0  0  0  0  0  0  0  0  0  0  0
    5.2111   -0.9998    0.8596 H   0  0  0  0  0  0  0  0  0  0  0  0
    5.2956   -2.4830   -0.0498 H   0  0  0  0  0  0  0  0  0  0  0  0
    5.2560    0.9808    0.8686 H   0  0  0  0  0  0  0  0  0  0  0  0
    5.1815    1.0210   -0.9613 H   0  0  0  0  0  0  0  0  0  0  0  0
    5.3705    2.4768   -0.0147 H   0  0  0  0  0  0  0  0  0  0  0  0
   -1.0305    3.1396   -0.8126 H   0  0  0  0  0  0  0  0  0  0  0  0
   -2.7722    2.0601    2.2361 H   0  0  0  0  0  0  0  0  0  0  0  0
   -4.6400    3.2842    3.2240 H   0  0  0  0  0  0  0  0  0  0  0  0
   -4.2055    6.3611    0.2492 H   0  0  0  0  0  0  0  0  0  0  0  0
   -2.3181    5.1275   -0.7598 H   0  0  0  0  0  0  0  0  0  0  0  0
   -5.9398    5.1222    3.0652 H   0  0  0  0  0  0  0  0  0  0  0  0
  1  2  2  0  0  0  0
  1 11  1  0  0  0  0
  2  3  1  0  0  0  0
  2 12  1  0  0  0  0
  3  4  2  0  0  0  0
  3 23  1  0  0  0  0
  4  5  1  0  0  0  0
  4  7  1  0  0  0  0
  5  6  2  0  0  0  0
  6  1  1  0  0  0  0
  6 24  1  0  0  0  0
  7  8  2  0  0  0  0
  8  9  1  0  0  0  0
  8 25  1  0  0  0  0
  9 10  2  0  0  0  0
 10  5  1  0  0  0  0
 10 15  1  0  0  0  0
 11 14  1  0  0  0  0
 12 13  1  0  0  0  0
 13 26  1  0  0  0  0
 13 27  1  0  0  0  0
 13 28  1  0  0  0  0
 14 29  1  0  0  0  0
 14 30  1  0  0  0  0
 14 31  1  0  0  0  0
 15 16  1  0  0  0  0
 15 32  1  0  0  0  0
 16 17  2  0  0  0  0
 17 18  1  0  0  0  0
 17 33  1  0  0  0  0
 18 19  2  0  0  0  0
 18 34  1  0  0  0  0
 19 20  1  0  0  0  0
 19 22  1  0  0  0  0
 20 21  2  0  0  0  0
 20 35  1  0  0  0  0
 21 16  1  0  0  0  0
 21 36  1  0  0  0  0
 22 37  1  0  0  0  0
M  END
>  <Mol_ID>
3170

>  <Formula>
C16H15N3O3

>  <MolWeight>
297.3086

>  <Cat>
S5903

>  <Name>
JANEX-1

>  <Synonyms>
WHI-P131

>  <Target>
JAK

>  <Form>
Free Base

>  <CAS>
202475-60-3

>  <URL>
http://www.selleckchem.com/products/janex-1.html

$$$$
