JFD01307SC
 OpenBabel08302521453D

 23 23  0  0  0  0  0  0  0  0999 V2000
    0.7152    0.1547    0.0263 S   0  0  0  0  0  0  0  0  0  0  0  0
    1.3888   -0.4193   -1.1213 O   0  0  0  0  0  0  0  0  0  0  0  0
    1.4363    0.8267    1.0890 O   0  0  0  0  0  0  0  0  0  0  0  0
   -2.5852    2.4104    3.6056 O   0  0  0  0  0  0  0  0  0  0  0  0
   -3.8886    4.0669    2.7660 O   0  0  0  0  0  0  0  0  0  0  0  0
   -2.2882    1.1849    1.3115 N   0  0  0  0  0  0  0  0  0  0  0  0
   -1.8993    0.6575   -0.0167 C   0  0  3  0  0  0  0  0  0  0  0  0
   -0.5813    1.2242   -0.5676 C   0  0  0  0  0  0  0  0  0  0  0  0
   -1.6875   -0.8665    0.0637 C   0  0  0  0  0  0  0  0  0  0  0  0
   -0.3424   -1.0869    0.7418 C   0  0  0  0  0  0  0  0  0  0  0  0
   -2.6761    2.6244    1.2233 C   0  0  0  0  0  0  0  0  0  0  0  0
   -3.1379    3.1217    2.5916 C   0  0  0  0  0  0  0  0  0  0  0  0
   -1.9968    1.7246    3.2114 H   0  0  0  0  0  0  0  0  0  0  0  0
   -3.1334    0.6760    1.6060 H   0  0  0  0  0  0  0  0  0  0  0  0
   -2.7162    0.8633   -0.7198 H   0  0  0  0  0  0  0  0  0  0  0  0
   -0.3630    2.2511   -0.2708 H   0  0  0  0  0  0  0  0  0  0  0  0
   -0.5774    1.1673   -1.6608 H   0  0  0  0  0  0  0  0  0  0  0  0
   -2.4948   -1.3843    0.5922 H   0  0  0  0  0  0  0  0  0  0  0  0
   -1.6532   -1.2762   -0.9545 H   0  0  0  0  0  0  0  0  0  0  0  0
    0.0712   -2.0789    0.5495 H   0  0  0  0  0  0  0  0  0  0  0  0
   -0.3998   -0.9074    1.8190 H   0  0  0  0  0  0  0  0  0  0  0  0
   -1.8240    3.2453    0.9371 H   0  0  0  0  0  0  0  0  0  0  0  0
   -3.4992    2.7522    0.5134 H   0  0  0  0  0  0  0  0  0  0  0  0
  1  2  2  0  0  0  0
  1  3  2  0  0  0  0
  1  8  1  0  0  0  0
  1 10  1  0  0  0  0
  4 12  1  0  0  0  0
  4 13  1  0  0  0  0
  5 12  2  0  0  0  0
  6  7  1  0  0  0  0
  6 11  1  0  0  0  0
  6 14  1  0  0  0  0
  7  8  1  0  0  0  0
  7  9  1  0  0  0  0
  7 15  1  0  0  0  0
  8 16  1  0  0  0  0
  8 17  1  0  0  0  0
  9 10  1  0  0  0  0
  9 18  1  0  0  0  0
  9 19  1  0  0  0  0
 10 20  1  0  0  0  0
 10 21  1  0  0  0  0
 11 12  1  0  0  0  0
 11 22  1  0  0  0  0
 11 23  1  0  0  0  0
M  END
>  <Mol_ID>
9394

>  <Formula>
C6H11NO4S

>  <MolWeight>
193.22084

>  <Cat>
S6090

>  <Name>
JFD01307SC

>  <Synonyms>
[(1,1-dioxidotetrahydrothien-3-yl)amino]acetic acid

>  <Target>
Bacterial

>  <Form>
Free Base

>  <CAS>
51070-56-5

>  <URL>
http://www.selleckchem.com/products/jfd01307sc.html

$$$$
