JHU37152
 OpenBabel08302521303D

 45 48  0  0  0  0  0  0  0  0999 V2000
   -2.6713    0.8197    0.7240 C   0  0  0  0  0  0  0  0  0  0  0  0
   -1.5449    0.7157   -0.0995 C   0  0  0  0  0  0  0  0  0  0  0  0
   -1.2369   -0.5357   -0.6643 C   0  0  0  0  0  0  0  0  0  0  0  0
   -2.0960   -1.6277   -0.4445 C   0  0  0  0  0  0  0  0  0  0  0  0
   -3.2362   -1.4968    0.3470 C   0  0  0  0  0  0  0  0  0  0  0  0
   -3.5157   -0.2746    0.9419 C   0  0  0  0  0  0  0  0  0  0  0  0
   -0.6946    1.9278   -0.3875 C   0  0  0  0  0  0  0  0  0  0  0  0
   -0.0047   -0.7837   -1.3092 N   0  0  0  0  0  0  0  0  0  0  0  0
    0.6130    1.9183   -0.3291 N   0  0  0  0  0  0  0  0  0  0  0  0
    1.4165    0.8011   -0.0683 C   0  0  0  0  0  0  0  0  0  0  0  0
    1.1947   -0.4780   -0.6162 C   0  0  0  0  0  0  0  0  0  0  0  0
    2.5872    1.0230    0.6698 C   0  0  0  0  0  0  0  0  0  0  0  0
    3.4956   -0.0075    0.9141 C   0  0  0  0  0  0  0  0  0  0  0  0
    3.2515   -1.2791    0.4065 C   0  0  0  0  0  0  0  0  0  0  0  0
    2.1108   -1.5104   -0.3620 C   0  0  0  0  0  0  0  0  0  0  0  0
   -1.2885    3.1463   -0.7621 N   0  0  0  0  0  0  0  0  0  0  0  0
   -2.9707    1.9646    1.3524 F   0  0  0  0  0  0  0  0  0  0  0  0
   -2.6712    3.2799   -1.2412 C   0  0  0  0  0  0  0  0  0  0  0  0
   -2.8374    4.4006   -2.2943 C   0  0  0  0  0  0  0  0  0  0  0  0
   -2.2334    5.7083   -1.9654 N   0  0  0  0  0  0  0  0  0  0  0  0
   -0.8135    5.4555   -1.6273 C   0  0  0  0  0  0  0  0  0  0  0  0
   -0.5752    4.4153   -0.5130 C   0  0  0  0  0  0  0  0  0  0  0  0
   -2.9085    6.4320   -0.8794 C   0  0  0  0  0  0  0  0  0  0  0  0
   -4.3136    6.9025   -1.2416 C   0  0  0  0  0  0  0  0  0  0  0  0
   -1.8542   -2.6056   -0.8548 H   0  0  0  0  0  0  0  0  0  0  0  0
   -3.8773   -2.3564    0.5252 H   0  0  0  0  0  0  0  0  0  0  0  0
   -4.3829   -0.1604    1.5865 H   0  0  0  0  0  0  0  0  0  0  0  0
    0.0364   -1.6813   -1.7720 H   0  0  0  0  0  0  0  0  0  0  0  0
    2.7907    2.0231    1.0437 H   0  0  0  0  0  0  0  0  0  0  0  0
    4.3916    0.1873    1.4968 H   0  0  0  0  0  0  0  0  0  0  0  0
    3.9450   -2.0905    0.6100 H   0  0  0  0  0  0  0  0  0  0  0  0
    1.9264   -2.5128   -0.7380 H   0  0  0  0  0  0  0  0  0  0  0  0
   -2.9927    2.3477   -1.7190 H   0  0  0  0  0  0  0  0  0  0  0  0
   -3.3409    3.4760   -0.3977 H   0  0  0  0  0  0  0  0  0  0  0  0
   -2.3736    4.0550   -3.2287 H   0  0  0  0  0  0  0  0  0  0  0  0
   -3.8997    4.5141   -2.5376 H   0  0  0  0  0  0  0  0  0  0  0  0
   -0.3059    5.1125   -2.5390 H   0  0  0  0  0  0  0  0  0  0  0  0
   -0.3203    6.3982   -1.3589 H   0  0  0  0  0  0  0  0  0  0  0  0
   -0.8935    4.8134    0.4572 H   0  0  0  0  0  0  0  0  0  0  0  0
    0.5087    4.2679   -0.4459 H   0  0  0  0  0  0  0  0  0  0  0  0
   -2.9528    5.8474    0.0459 H   0  0  0  0  0  0  0  0  0  0  0  0
   -2.3282    7.3358   -0.6547 H   0  0  0  0  0  0  0  0  0  0  0  0
   -5.0110    6.0663   -1.3420 H   0  0  0  0  0  0  0  0  0  0  0  0
   -4.6985    7.5569   -0.4517 H   0  0  0  0  0  0  0  0  0  0  0  0
   -4.3147    7.4747   -2.1753 H   0  0  0  0  0  0  0  0  0  0  0  0
  1  2  2  0  0  0  0
  1 17  1  0  0  0  0
  2  3  1  0  0  0  0
  2  7  1  0  0  0  0
  3  4  2  0  0  0  0
  3  8  1  0  0  0  0
  4  5  1  0  0  0  0
  4 25  1  0  0  0  0
  5  6  2  0  0  0  0
  5 26  1  0  0  0  0
  6  1  1  0  0  0  0
  6 27  1  0  0  0  0
  7  9  2  0  0  0  0
  7 16  1  0  0  0  0
  8 11  1  0  0  0  0
  8 28  1  0  0  0  0
  9 10  1  0  0  0  0
 10 12  2  0  0  0  0
 11 10  1  0  0  0  0
 12 13  1  0  0  0  0
 12 29  1  0  0  0  0
 13 14  2  0  0  0  0
 13 30  1  0  0  0  0
 14 15  1  0  0  0  0
 14 31  1  0  0  0  0
 15 11  2  0  0  0  0
 15 32  1  0  0  0  0
 16 18  1  0  0  0  0
 18 19  1  0  0  0  0
 18 33  1  0  0  0  0
 18 34  1  0  0  0  0
 19 20  1  0  0  0  0
 19 35  1  0  0  0  0
 19 36  1  0  0  0  0
 20 21  1  0  0  0  0
 20 23  1  0  0  0  0
 21 22  1  0  0  0  0
 21 37  1  0  0  0  0
 21 38  1  0  0  0  0
 22 16  1  0  0  0  0
 22 39  1  0  0  0  0
 22 40  1  0  0  0  0
 23 24  1  0  0  0  0
 23 41  1  0  0  0  0
 23 42  1  0  0  0  0
 24 43  1  0  0  0  0
 24 44  1  0  0  0  0
 24 45  1  0  0  0  0
M  END
>  <Mol_ID>
5592

>  <Formula>
C19H20ClFN4

>  <MolWeight>
358.8403032

>  <Cat>
S9789

>  <Name>
JHU37152

>  <Synonyms>
N/A

>  <Target>
AChR

>  <Form>
Free Base

>  <CAS>
2369979-67-7

>  <URL>
http://www.selleckchem.com/products/jhu37152.html

$$$$
