JKE-1674
 OpenBabel08302521373D

 50 52  0  0  0  0  0  0  0  0999 V2000
    1.0576   -0.0535   -0.1311 C   0  0  0  0  0  0  0  0  0  0  0  0
    3.3298   -2.9336    3.4662 C   0  0  0  0  0  0  0  0  0  0  0  0
    3.0214   -4.4079    3.6720 C   0  0  0  0  0  0  0  0  0  0  0  0
    4.3111   -2.5074    4.0676 O   0  0  0  0  0  0  0  0  0  0  0  0
    4.2183   -5.3215    3.7154 C   0  0  0  0  0  0  0  0  0  0  0  0
    1.7915   -4.7613    3.9164 N   0  0  0  0  0  0  0  0  0  0  0  0
    4.9717   -5.1913    2.4370 N   0  3  0  0  0  0  0  0  0  0  0  0
    1.6805   -6.1421    4.1199 O   0  0  0  0  0  0  0  0  0  0  0  0
    6.1930   -5.3905    2.4937 O   0  5  0  0  0  0  0  0  0  0  0  0
    4.3345   -4.9635    1.4008 O   0  0  0  0  0  0  0  0  0  0  0  0
    0.5887   -0.3736    1.2471 N   0  0  0  0  0  0  0  0  0  0  0  0
    1.5339    0.1173    2.2909 C   0  0  0  0  0  0  0  0  0  0  0  0
    0.3321   -1.8077    1.5022 C   0  0  0  0  0  0  0  0  0  0  0  0
    2.8058   -0.7338    2.5178 C   0  0  0  0  0  0  0  0  0  0  0  0
    1.5901   -2.6865    1.6414 C   0  0  0  0  0  0  0  0  0  0  0  0
    2.5043   -2.1582    2.6558 N   0  0  0  0  0  0  0  0  0  0  0  0
    1.1244    1.4789   -0.3236 C   0  0  0  0  0  0  0  0  0  0  0  0
    2.3411    2.1134   -0.6195 C   0  0  0  0  0  0  0  0  0  0  0  0
   -0.0115    2.2888   -0.1286 C   0  0  0  0  0  0  0  0  0  0  0  0
    2.4145    3.5089   -0.6988 C   0  0  0  0  0  0  0  0  0  0  0  0
    0.0559    3.6771   -0.2427 C   0  0  0  0  0  0  0  0  0  0  0  0
    1.2709    4.2882   -0.5152 C   0  0  0  0  0  0  0  0  0  0  0  0
    0.2441   -0.6964   -1.2751 C   0  0  0  0  0  0  0  0  0  0  0  0
   -1.1371   -0.4794   -1.4302 C   0  0  0  0  0  0  0  0  0  0  0  0
    0.8953   -1.4644   -2.2581 C   0  0  0  0  0  0  0  0  0  0  0  0
   -1.8162   -0.9055   -2.5756 C   0  0  0  0  0  0  0  0  0  0  0  0
    0.2068   -1.9223   -3.3882 C   0  0  0  0  0  0  0  0  0  0  0  0
   -1.1399   -1.6141   -3.5623 C   0  0  0  0  0  0  0  0  0  0  0  0
    2.0819   -0.4390   -0.2316 H   0  0  0  0  0  0  0  0  0  0  0  0
    4.8841   -5.0317    4.5348 H   0  0  0  0  0  0  0  0  0  0  0  0
    3.9640   -6.3757    3.8044 H   0  0  0  0  0  0  0  0  0  0  0  0
    0.7207   -6.2624    4.2574 H   0  0  0  0  0  0  0  0  0  0  0  0
    1.8343    1.1585    2.1172 H   0  0  0  0  0  0  0  0  0  0  0  0
    0.9769    0.1475    3.2354 H   0  0  0  0  0  0  0  0  0  0  0  0
   -0.2254   -1.8665    2.4480 H   0  0  0  0  0  0  0  0  0  0  0  0
   -0.3411   -2.2350    0.7556 H   0  0  0  0  0  0  0  0  0  0  0  0
    3.5023   -0.6288    1.6774 H   0  0  0  0  0  0  0  0  0  0  0  0
    3.3228   -0.3730    3.4141 H   0  0  0  0  0  0  0  0  0  0  0  0
    2.1442   -2.7166    0.6957 H   0  0  0  0  0  0  0  0  0  0  0  0
    1.2905   -3.7123    1.8574 H   0  0  0  0  0  0  0  0  0  0  0  0
    3.2492    1.5323   -0.7593 H   0  0  0  0  0  0  0  0  0  0  0  0
   -0.9632    1.8463    0.1460 H   0  0  0  0  0  0  0  0  0  0  0  0
    3.3668    3.9933   -0.8927 H   0  0  0  0  0  0  0  0  0  0  0  0
   -0.8418    4.2738   -0.0967 H   0  0  0  0  0  0  0  0  0  0  0  0
    1.3311    5.3710   -0.5725 H   0  0  0  0  0  0  0  0  0  0  0  0
   -1.7000    0.0521   -0.6705 H   0  0  0  0  0  0  0  0  0  0  0  0
    1.9540   -1.6980   -2.1667 H   0  0  0  0  0  0  0  0  0  0  0  0
   -2.8688   -0.6648   -2.7005 H   0  0  0  0  0  0  0  0  0  0  0  0
    0.7286   -2.4996   -4.1476 H   0  0  0  0  0  0  0  0  0  0  0  0
   -1.6624   -1.9245   -4.4632 H   0  0  0  0  0  0  0  0  0  0  0  0
  1 11  1  0  0  0  0
  1 17  1  0  0  0  0
  1 23  1  0  0  0  0
  1 29  1  0  0  0  0
  2  3  1  0  0  0  0
  2  4  2  0  0  0  0
  2 16  1  0  0  0  0
  3  5  1  0  0  0  0
  3  6  2  3  0  0  0
  5  7  1  0  0  0  0
  5 30  1  0  0  0  0
  5 31  1  0  0  0  0
  6  8  1  0  0  0  0
  7  9  1  0  0  0  0
  7 10  2  0  0  0  0
  8 32  1  0  0  0  0
 11 12  1  0  0  0  0
 11 13  1  0  0  0  0
 12 14  1  0  0  0  0
 12 33  1  0  0  0  0
 12 34  1  0  0  0  0
 13 15  1  0  0  0  0
 13 35  1  0  0  0  0
 13 36  1  0  0  0  0
 14 16  1  0  0  0  0
 14 37  1  0  0  0  0
 14 38  1  0  0  0  0
 15 16  1  0  0  0  0
 15 39  1  0  0  0  0
 15 40  1  0  0  0  0
 17 18  2  0  0  0  0
 17 19  1  0  0  0  0
 18 20  1  0  0  0  0
 18 41  1  0  0  0  0
 19 21  2  0  0  0  0
 19 42  1  0  0  0  0
 20 22  2  0  0  0  0
 20 43  1  0  0  0  0
 21 22  1  0  0  0  0
 21 44  1  0  0  0  0
 22 45  1  0  0  0  0
 23 24  2  0  0  0  0
 23 25  1  0  0  0  0
 24 26  1  0  0  0  0
 24 46  1  0  0  0  0
 25 27  2  0  0  0  0
 25 47  1  0  0  0  0
 26 28  2  0  0  0  0
 26 48  1  0  0  0  0
 27 28  1  0  0  0  0
 27 49  1  0  0  0  0
 28 50  1  0  0  0  0
M  CHG  2   7   1   9  -1
M  END
>  <Mol_ID>
7528

>  <Formula>
C20H20Cl2N4O4

>  <MolWeight>
451.3032

>  <Cat>
E1375

>  <Name>
JKE-1674

>  <Target>
Peroxidases

>  <Form>
free base

>  <CAS>
2421119-60-8

>  <URL>
https://www.selleckchem.com/products/jke-1674.html

$$$$
