JNJ-38877618(OMO-1)
 OpenBabel08302521223D

 40 44  0  0  0  0  0  0  0  0999 V2000
   -2.1126    0.7589   -0.0628 C   0  0  0  0  0  0  0  0  0  0  0  0
   -1.1093    1.5932   -0.0126 N   0  0  0  0  0  0  0  0  0  0  0  0
    0.1180    0.9849   -0.0845 N   0  0  0  0  0  0  0  0  0  0  0  0
    0.3572   -0.3647   -0.2550 C   0  0  0  0  0  0  0  0  0  0  0  0
   -0.7373   -1.2424   -0.2186 C   0  0  0  0  0  0  0  0  0  0  0  0
   -1.9721   -0.7336   -0.1173 C   0  0  0  0  0  0  0  0  0  0  0  0
    1.3707    1.5474    0.0138 C   0  0  0  0  0  0  0  0  0  0  0  0
    2.2833    0.6278   -0.2569 N   0  0  0  0  0  0  0  0  0  0  0  0
    1.6426   -0.5765   -0.4085 N   0  0  0  0  0  0  0  0  0  0  0  0
   -3.5102    1.2844   -0.0284 C   0  0  0  0  0  0  0  0  0  0  0  0
    1.5956    2.8972    0.5879 C   0  0  0  0  0  0  0  0  0  0  0  0
    1.2675    4.0832   -0.3078 C   0  0  0  0  0  0  0  0  0  0  0  0
    1.1410    4.1133   -1.6976 C   0  0  0  0  0  0  0  0  0  0  0  0
    0.1067    4.9248   -2.2412 C   0  0  0  0  0  0  0  0  0  0  0  0
   -0.8278    5.4939   -1.3561 C   0  0  0  0  0  0  0  0  0  0  0  0
   -0.5214    5.4965   -0.0089 C   0  0  0  0  0  0  0  0  0  0  0  0
    0.7595    5.1743    0.3782 C   0  0  0  0  0  0  0  0  0  0  0  0
   -0.1325    5.1252   -3.6133 C   0  0  0  0  0  0  0  0  0  0  0  0
   -1.2980    5.7774   -4.0170 C   0  0  0  0  0  0  0  0  0  0  0  0
   -2.2033    6.1699   -3.0499 C   0  0  0  0  0  0  0  0  0  0  0  0
   -1.9840    6.0510   -1.7280 N   0  0  0  0  0  0  0  0  0  0  0  0
    0.8296    2.9673    1.7358 F   0  0  0  0  0  0  0  0  0  0  0  0
    2.8747    3.0062    1.0662 F   0  0  0  0  0  0  0  0  0  0  0  0
   -4.5669    0.6398   -0.6714 C   0  0  0  0  0  0  0  0  0  0  0  0
   -5.8349    1.1841   -0.5459 C   0  0  0  0  0  0  0  0  0  0  0  0
   -6.0992    2.3143    0.1349 N   0  0  0  0  0  0  0  0  0  0  0  0
   -5.0533    2.9487    0.7122 C   0  0  0  0  0  0  0  0  0  0  0  0
   -3.7521    2.4805    0.6695 C   0  0  0  0  0  0  0  0  0  0  0  0
   -0.5619   -2.3107   -0.2417 H   0  0  0  0  0  0  0  0  0  0  0  0
   -2.8400   -1.3770   -0.0497 H   0  0  0  0  0  0  0  0  0  0  0  0
    1.6941    3.4288   -2.3383 H   0  0  0  0  0  0  0  0  0  0  0  0
   -1.2630    5.7456    0.7359 H   0  0  0  0  0  0  0  0  0  0  0  0
    1.4293    6.0612    0.2547 H   0  0  0  0  0  0  0  0  0  0  0  0
    0.5752    4.7871   -4.3664 H   0  0  0  0  0  0  0  0  0  0  0  0
   -1.5143    5.9609   -5.0632 H   0  0  0  0  0  0  0  0  0  0  0  0
   -3.1566    6.6214   -3.3045 H   0  0  0  0  0  0  0  0  0  0  0  0
   -4.4329   -0.2532   -1.2661 H   0  0  0  0  0  0  0  0  0  0  0  0
   -6.6964    0.7134   -1.0133 H   0  0  0  0  0  0  0  0  0  0  0  0
   -5.2934    3.8713    1.2279 H   0  0  0  0  0  0  0  0  0  0  0  0
   -2.9480    3.0340    1.1468 H   0  0  0  0  0  0  0  0  0  0  0  0
  1  2  2  0  0  0  0
  1 10  1  0  0  0  0
  2  3  1  0  0  0  0
  3  4  1  0  0  0  0
  3  7  1  0  0  0  0
  4  5  1  0  0  0  0
  5  6  2  0  0  0  0
  5 29  1  0  0  0  0
  6  1  1  0  0  0  0
  6 30  1  0  0  0  0
  7  8  2  0  0  0  0
  7 11  1  0  0  0  0
  8  9  1  0  0  0  0
  9  4  2  0  0  0  0
 10 24  2  0  0  0  0
 11 12  1  0  0  0  0
 11 22  1  0  0  0  0
 11 23  1  0  0  0  0
 12 13  2  0  0  0  0
 13 14  1  0  0  0  0
 13 31  1  0  0  0  0
 14 15  2  0  0  0  0
 14 18  1  0  0  0  0
 15 16  1  0  0  0  0
 16 17  2  0  0  0  0
 16 32  1  0  0  0  0
 17 12  1  0  0  0  0
 17 33  1  0  0  0  0
 18 19  2  0  0  0  0
 18 34  1  0  0  0  0
 19 20  1  0  0  0  0
 19 35  1  0  0  0  0
 20 21  2  0  0  0  0
 20 36  1  0  0  0  0
 21 15  1  0  0  0  0
 24 25  1  0  0  0  0
 24 37  1  0  0  0  0
 25 26  2  0  0  0  0
 25 38  1  0  0  0  0
 26 27  1  0  0  0  0
 27 28  2  0  0  0  0
 27 39  1  0  0  0  0
 28 10  1  0  0  0  0
 28 40  1  0  0  0  0
M  END
>  <Mol_ID>
4702

>  <Formula>
C20H12F2N6

>  <MolWeight>
374.3462864

>  <Cat>
S8854

>  <Name>
JNJ-38877618(OMO-1)

>  <Synonyms>
N/A

>  <Target>
c-Met

>  <Form>
free base

>  <CAS>
943540-74-7

>  <URL>
http://www.selleck.cn/products/jnj-38877618.html

$$$$
