JNJ0966
 OpenBabel08302520343D

 40 42  0  0  0  0  0  0  0  0999 V2000
    0.3236    0.7325   -2.8528 C   0  0  0  0  0  0  0  0  0  0  0  0
   -0.0694   -0.5596   -2.5269 C   0  0  0  0  0  0  0  0  0  0  0  0
   -0.8091   -0.7892   -1.3653 C   0  0  0  0  0  0  0  0  0  0  0  0
   -1.1375    0.2737   -0.5162 C   0  0  0  0  0  0  0  0  0  0  0  0
   -0.6880    1.5812   -0.8028 C   0  0  0  0  0  0  0  0  0  0  0  0
    0.0061    1.7928   -2.0048 C   0  0  0  0  0  0  0  0  0  0  0  0
   -0.9746    2.6182    0.1214 N   0  0  0  0  0  0  0  0  0  0  0  0
   -1.8377    0.1240    0.6616 O   0  0  0  0  0  0  0  0  0  0  0  0
   -2.7768   -0.9478    0.6716 C   0  0  0  0  0  0  0  0  0  0  0  0
   -0.2190    3.7349    0.2827 C   0  0  0  0  0  0  0  0  0  0  0  0
    0.4942    4.3422   -0.6415 N   0  0  0  0  0  0  0  0  0  0  0  0
    1.3328    5.2825   -0.0907 C   0  0  0  0  0  0  0  0  0  0  0  0
    1.1374    5.5052    1.2521 C   0  0  0  0  0  0  0  0  0  0  0  0
   -0.0963    4.4690    1.8436 S   0  0  0  0  0  0  0  0  0  0  0  0
    2.3534    5.9725   -0.9405 C   0  0  0  0  0  0  0  0  0  0  0  0
    2.1493    6.2265   -2.6229 S   0  0  0  0  0  0  0  0  0  0  0  0
    3.6134    7.0876   -2.6654 C   0  0  0  0  0  0  0  0  0  0  0  0
    4.3169    7.0743   -1.5579 N   0  0  0  0  0  0  0  0  0  0  0  0
    3.5978    6.4414   -0.5483 C   0  0  0  0  0  0  0  0  0  0  0  0
    4.2629    6.2712    0.7697 C   0  0  0  0  0  0  0  0  0  0  0  0
    4.0795    7.7246   -3.7881 N   0  0  0  0  0  0  0  0  0  0  0  0
    3.3420    8.0616   -4.8990 C   0  0  0  0  0  0  0  0  0  0  0  0
    4.1456    8.8142   -5.9321 C   0  0  0  0  0  0  0  0  0  0  0  0
    2.1515    7.8431   -5.0961 O   0  0  0  0  0  0  0  0  0  0  0  0
    0.8883    0.9262   -3.7614 H   0  0  0  0  0  0  0  0  0  0  0  0
    0.1988   -1.3859   -3.1768 H   0  0  0  0  0  0  0  0  0  0  0  0
   -1.0919   -1.8094   -1.1355 H   0  0  0  0  0  0  0  0  0  0  0  0
    0.3199    2.7884   -2.3037 H   0  0  0  0  0  0  0  0  0  0  0  0
   -1.3862    2.2277    0.9657 H   0  0  0  0  0  0  0  0  0  0  0  0
   -3.4269   -0.9177   -0.2099 H   0  0  0  0  0  0  0  0  0  0  0  0
   -2.2703   -1.9147    0.7545 H   0  0  0  0  0  0  0  0  0  0  0  0
   -3.4088   -0.8304    1.5571 H   0  0  0  0  0  0  0  0  0  0  0  0
    1.6072    6.2218    1.9079 H   0  0  0  0  0  0  0  0  0  0  0  0
    3.7325    6.8201    1.5515 H   0  0  0  0  0  0  0  0  0  0  0  0
    4.3068    5.2117    1.0424 H   0  0  0  0  0  0  0  0  0  0  0  0
    5.2908    6.6501    0.7393 H   0  0  0  0  0  0  0  0  0  0  0  0
    5.0056    8.1074   -3.6646 H   0  0  0  0  0  0  0  0  0  0  0  0
    4.0935    8.2771   -6.8831 H   0  0  0  0  0  0  0  0  0  0  0  0
    3.7195    9.8149   -6.0524 H   0  0  0  0  0  0  0  0  0  0  0  0
    5.1963    8.9164   -5.6486 H   0  0  0  0  0  0  0  0  0  0  0  0
  1  2  2  0  0  0  0
  1 25  1  0  0  0  0
  2  3  1  0  0  0  0
  2 26  1  0  0  0  0
  3  4  2  0  0  0  0
  3 27  1  0  0  0  0
  4  5  1  0  0  0  0
  4  8  1  0  0  0  0
  5  6  2  0  0  0  0
  5  7  1  0  0  0  0
  6  1  1  0  0  0  0
  6 28  1  0  0  0  0
  7 10  1  0  0  0  0
  7 29  1  0  0  0  0
  8  9  1  0  0  0  0
  9 30  1  0  0  0  0
  9 31  1  0  0  0  0
  9 32  1  0  0  0  0
 10 11  2  0  0  0  0
 11 12  1  0  0  0  0
 12 13  2  0  0  0  0
 12 15  1  0  0  0  0
 13 14  1  0  0  0  0
 13 33  1  0  0  0  0
 14 10  1  0  0  0  0
 15 16  1  0  0  0  0
 16 17  1  0  0  0  0
 17 18  2  0  0  0  0
 17 21  1  0  0  0  0
 18 19  1  0  0  0  0
 19 15  2  0  0  0  0
 19 20  1  0  0  0  0
 20 34  1  0  0  0  0
 20 35  1  0  0  0  0
 20 36  1  0  0  0  0
 21 22  1  0  0  0  0
 21 37  1  0  0  0  0
 22 23  1  0  0  0  0
 22 24  2  0  0  0  0
 23 38  1  0  0  0  0
 23 39  1  0  0  0  0
 23 40  1  0  0  0  0
M  END
>  <Mol_ID>
3369

>  <Formula>
C16H16N4O2S2

>  <MolWeight>
360.45384

>  <Cat>
S5696

>  <Name>
JNJ0966

>  <Synonyms>
N/A

>  <Target>
MMP

>  <Form>
Free Base

>  <CAS>
315705-75-0

>  <URL>
http://www.selleckchem.com/products/jnj0966.html

$$$$
