JSH-23.cdx
 OpenBabel08302519583D

 38 39  0  0  0  0  0  0  0  0999 V2000
   -1.2572    0.9094    0.6529 C   0  0  0  0  0  0  0  0  0  0  0  0
   -1.2957   -0.4274    1.1058 C   0  0  0  0  0  0  0  0  0  0  0  0
   -0.1189   -1.0228    1.6069 C   0  0  0  0  0  0  0  0  0  0  0  0
    1.0568   -0.2925    1.8058 C   0  0  0  0  0  0  0  0  0  0  0  0
    1.0754    1.0471    1.4407 C   0  0  0  0  0  0  0  0  0  0  0  0
   -0.0589    1.6268    0.8654 C   0  0  0  0  0  0  0  0  0  0  0  0
   -2.2927    1.6512    0.0978 N   0  0  0  0  0  0  0  0  0  0  0  0
   -2.4031   -1.2850    0.9201 N   0  0  0  0  0  0  0  0  0  0  0  0
   -3.6917    1.3138   -0.0435 C   0  0  0  0  0  0  0  0  0  0  0  0
   -4.4440    1.5827    1.2627 C   0  0  0  0  0  0  0  0  0  0  0  0
   -4.4273    3.0716    1.6286 C   0  0  0  0  0  0  0  0  0  0  0  0
   -5.1873    3.3470    2.9018 C   0  0  0  0  0  0  0  0  0  0  0  0
   -4.5317    3.3099    4.1395 C   0  0  0  0  0  0  0  0  0  0  0  0
   -5.2363    3.5533    5.3193 C   0  0  0  0  0  0  0  0  0  0  0  0
   -6.6006    3.8311    5.2730 C   0  0  0  0  0  0  0  0  0  0  0  0
   -7.2628    3.8652    4.0453 C   0  0  0  0  0  0  0  0  0  0  0  0
   -6.5595    3.6225    2.8651 C   0  0  0  0  0  0  0  0  0  0  0  0
    2.2511   -0.9503    2.4272 C   0  0  0  0  0  0  0  0  0  0  0  0
   -0.1286   -2.0770    1.8758 H   0  0  0  0  0  0  0  0  0  0  0  0
    1.9634    1.6547    1.5920 H   0  0  0  0  0  0  0  0  0  0  0  0
   -0.0072    2.6779    0.5880 H   0  0  0  0  0  0  0  0  0  0  0  0
   -1.9743    2.3709   -0.5439 H   0  0  0  0  0  0  0  0  0  0  0  0
   -2.3303   -2.1471    1.4489 H   0  0  0  0  0  0  0  0  0  0  0  0
   -3.2658   -0.8082    1.1438 H   0  0  0  0  0  0  0  0  0  0  0  0
   -4.1200    1.9513   -0.8263 H   0  0  0  0  0  0  0  0  0  0  0  0
   -3.8416    0.2930   -0.4057 H   0  0  0  0  0  0  0  0  0  0  0  0
   -5.4811    1.2438    1.1477 H   0  0  0  0  0  0  0  0  0  0  0  0
   -4.0127    1.0000    2.0853 H   0  0  0  0  0  0  0  0  0  0  0  0
   -3.3971    3.4306    1.7473 H   0  0  0  0  0  0  0  0  0  0  0  0
   -4.8592    3.6654    0.8133 H   0  0  0  0  0  0  0  0  0  0  0  0
   -3.4664    3.0934    4.1892 H   0  0  0  0  0  0  0  0  0  0  0  0
   -4.7186    3.5268    6.2747 H   0  0  0  0  0  0  0  0  0  0  0  0
   -7.1487    4.0216    6.1914 H   0  0  0  0  0  0  0  0  0  0  0  0
   -8.3266    4.0804    4.0088 H   0  0  0  0  0  0  0  0  0  0  0  0
   -7.0888    3.6526    1.9156 H   0  0  0  0  0  0  0  0  0  0  0  0
    2.0106   -1.2727    3.4458 H   0  0  0  0  0  0  0  0  0  0  0  0
    2.5555   -1.8203    1.8372 H   0  0  0  0  0  0  0  0  0  0  0  0
    3.1036   -0.2659    2.4835 H   0  0  0  0  0  0  0  0  0  0  0  0
  1  2  2  0  0  0  0
  1  6  1  0  0  0  0
  1  7  1  0  0  0  0
  2  3  1  0  0  0  0
  2  8  1  0  0  0  0
  3  4  2  0  0  0  0
  3 19  1  0  0  0  0
  4  5  1  0  0  0  0
  4 18  1  0  0  0  0
  5  6  2  0  0  0  0
  5 20  1  0  0  0  0
  6 21  1  0  0  0  0
  7  9  1  0  0  0  0
  7 22  1  0  0  0  0
  8 23  1  0  0  0  0
  8 24  1  0  0  0  0
  9 10  1  0  0  0  0
  9 25  1  0  0  0  0
  9 26  1  0  0  0  0
 10 11  1  0  0  0  0
 10 27  1  0  0  0  0
 10 28  1  0  0  0  0
 11 12  1  0  0  0  0
 11 29  1  0  0  0  0
 11 30  1  0  0  0  0
 12 13  2  0  0  0  0
 12 17  1  0  0  0  0
 13 14  1  0  0  0  0
 13 31  1  0  0  0  0
 14 15  2  0  0  0  0
 14 32  1  0  0  0  0
 15 16  1  0  0  0  0
 15 33  1  0  0  0  0
 16 17  2  0  0  0  0
 16 34  1  0  0  0  0
 17 35  1  0  0  0  0
 18 36  1  0  0  0  0
 18 37  1  0  0  0  0
 18 38  1  0  0  0  0
M  END
>  <Mol_ID>
2332

>  <Formula>
C16H20N2

>  <MolWeight>
240.3434

>  <Cat>
S7351

>  <Name>
JSH-23

>  <Synonyms>
N/A

>  <Target>
NF-¦ÊB

>  <Form>
free base

>  <CAS>
749886-87-1

>  <URL>
http://selleckchem.com/products/jsh-23.html

$$$$
