JW74
 OpenBabel08302521353D

 53 57  0  0  0  0  0  0  0  0999 V2000
    1.3161   -0.2127   -0.2858 S   0  0  0  0  0  0  0  0  0  0  0  0
    0.9489    0.6425   -1.8671 C   0  0  0  0  0  0  0  0  0  0  0  0
    2.8734   -6.7470    0.2919 O   0  0  0  0  0  0  0  0  0  0  0  0
    3.5961   -7.6090    1.1586 C   0  0  0  0  0  0  0  0  0  0  0  0
    5.0392   -6.5067   -5.0907 C   0  0  0  0  0  0  0  0  0  0  0  0
    3.9160   -1.2432   -0.0329 N   0  0  0  0  0  0  0  0  0  0  0  0
    5.1913   -0.6500   -0.0598 C   0  0  0  0  0  0  0  0  0  0  0  0
    3.0575   -0.1737   -0.2780 C   0  0  0  0  0  0  0  0  0  0  0  0
    5.0507    0.6621   -0.1507 N   0  0  0  0  0  0  0  0  0  0  0  0
    3.7271    0.9533   -0.3180 N   0  0  0  0  0  0  0  0  0  0  0  0
    3.6163   -2.6309    0.1588 C   0  0  0  0  0  0  0  0  0  0  0  0
    4.4077   -3.4332    0.9974 C   0  0  0  0  0  0  0  0  0  0  0  0
    2.5828   -3.2395   -0.5520 C   0  0  0  0  0  0  0  0  0  0  0  0
    4.2048   -4.8216    1.0668 C   0  0  0  0  0  0  0  0  0  0  0  0
    2.3714   -4.6172   -0.4641 C   0  0  0  0  0  0  0  0  0  0  0  0
    3.1829   -5.4183    0.3334 C   0  0  0  0  0  0  0  0  0  0  0  0
    6.5001   -1.3230   -0.0786 C   0  0  0  0  0  0  0  0  0  0  0  0
    6.7179   -2.4973   -0.8065 C   0  0  0  0  0  0  0  0  0  0  0  0
    7.5778   -0.7757    0.6227 C   0  0  0  0  0  0  0  0  0  0  0  0
    7.9481   -3.1253   -0.7112 C   0  0  0  0  0  0  0  0  0  0  0  0
    8.7848   -1.4593    0.6290 C   0  0  0  0  0  0  0  0  0  0  0  0
    8.9832   -2.6366   -0.0004 N   0  0  0  0  0  0  0  0  0  0  0  0
    1.4114   -0.1289   -3.0485 C   0  0  0  0  0  0  0  0  0  0  0  0
    1.5366   -1.4258   -3.1989 N   0  0  0  0  0  0  0  0  0  0  0  0
    1.8542    0.5754   -4.1309 O   0  0  0  0  0  0  0  0  0  0  0  0
    2.2441   -1.5315   -4.3711 C   0  0  0  0  0  0  0  0  0  0  0  0
    2.4149   -0.3607   -5.0095 N   0  0  0  0  0  0  0  0  0  0  0  0
    2.8828   -2.7909   -4.7192 C   0  0  0  0  0  0  0  0  0  0  0  0
    2.2978   -3.9941   -4.3066 C   0  0  0  0  0  0  0  0  0  0  0  0
    4.1471   -2.8156   -5.3240 C   0  0  0  0  0  0  0  0  0  0  0  0
    2.9818   -5.2014   -4.4477 C   0  0  0  0  0  0  0  0  0  0  0  0
    4.8309   -4.0269   -5.4590 C   0  0  0  0  0  0  0  0  0  0  0  0
    4.2607   -5.2247   -5.0105 C   0  0  0  0  0  0  0  0  0  0  0  0
   -0.1386    0.7580   -1.9293 H   0  0  0  0  0  0  0  0  0  0  0  0
    1.3886    1.6438   -1.8540 H   0  0  0  0  0  0  0  0  0  0  0  0
    4.6476   -7.6699    0.8614 H   0  0  0  0  0  0  0  0  0  0  0  0
    3.4952   -7.2990    2.2036 H   0  0  0  0  0  0  0  0  0  0  0  0
    3.1625   -8.6095    1.0653 H   0  0  0  0  0  0  0  0  0  0  0  0
    5.3748   -6.6837   -6.1164 H   0  0  0  0  0  0  0  0  0  0  0  0
    5.9087   -6.4567   -4.4270 H   0  0  0  0  0  0  0  0  0  0  0  0
    4.4295   -7.3619   -4.7837 H   0  0  0  0  0  0  0  0  0  0  0  0
    5.2035   -3.0112    1.6088 H   0  0  0  0  0  0  0  0  0  0  0  0
    1.9527   -2.6974   -1.2436 H   0  0  0  0  0  0  0  0  0  0  0  0
    4.8718   -5.4067    1.6927 H   0  0  0  0  0  0  0  0  0  0  0  0
    1.5745   -5.0715   -1.0478 H   0  0  0  0  0  0  0  0  0  0  0  0
    5.9430   -2.9457   -1.4201 H   0  0  0  0  0  0  0  0  0  0  0  0
    7.4871    0.1652    1.1581 H   0  0  0  0  0  0  0  0  0  0  0  0
    8.1310   -4.0705   -1.2145 H   0  0  0  0  0  0  0  0  0  0  0  0
    9.6489   -1.0698    1.1605 H   0  0  0  0  0  0  0  0  0  0  0  0
    1.3147   -3.9942   -3.8318 H   0  0  0  0  0  0  0  0  0  0  0  0
    4.6209   -1.8922   -5.6461 H   0  0  0  0  0  0  0  0  0  0  0  0
    2.5192   -6.1178   -4.0895 H   0  0  0  0  0  0  0  0  0  0  0  0
    5.8330   -4.0216   -5.8895 H   0  0  0  0  0  0  0  0  0  0  0  0
  1  2  1  0  0  0  0
  1  8  1  0  0  0  0
  2 23  1  0  0  0  0
  2 34  1  0  0  0  0
  2 35  1  0  0  0  0
  3  4  1  0  0  0  0
  3 16  1  0  0  0  0
  4 36  1  0  0  0  0
  4 37  1  0  0  0  0
  4 38  1  0  0  0  0
  5 33  1  0  0  0  0
  5 39  1  0  0  0  0
  5 40  1  0  0  0  0
  5 41  1  0  0  0  0
  6  7  1  0  0  0  0
  6  8  1  0  0  0  0
  6 11  1  0  0  0  0
  7  9  2  0  0  0  0
  7 17  1  0  0  0  0
  8 10  2  0  0  0  0
  9 10  1  0  0  0  0
 11 12  2  0  0  0  0
 11 13  1  0  0  0  0
 12 14  1  0  0  0  0
 12 42  1  0  0  0  0
 13 15  2  0  0  0  0
 13 43  1  0  0  0  0
 14 16  2  0  0  0  0
 14 44  1  0  0  0  0
 15 16  1  0  0  0  0
 15 45  1  0  0  0  0
 17 18  2  0  0  0  0
 17 19  1  0  0  0  0
 18 20  1  0  0  0  0
 18 46  1  0  0  0  0
 19 21  2  0  0  0  0
 19 47  1  0  0  0  0
 20 22  2  0  0  0  0
 20 48  1  0  0  0  0
 21 22  1  0  0  0  0
 21 49  1  0  0  0  0
 23 24  2  0  0  0  0
 23 25  1  0  0  0  0
 24 26  1  0  0  0  0
 25 27  1  0  0  0  0
 26 27  2  0  0  0  0
 26 28  1  0  0  0  0
 28 29  2  0  0  0  0
 28 30  1  0  0  0  0
 29 31  1  0  0  0  0
 29 50  1  0  0  0  0
 30 32  2  0  0  0  0
 30 51  1  0  0  0  0
 31 33  2  0  0  0  0
 31 52  1  0  0  0  0
 32 33  1  0  0  0  0
 32 53  1  0  0  0  0
M  END
>  <Mol_ID>
6974

>  <Formula>
C24H20N6O2S

>  <MolWeight>
456.5196

>  <Cat>
E1731

>  <Name>
JW74

>  <Target>
Wnt/beta-catenin

>  <Form>
free base

>  <CAS>
863405-60-1

>  <URL>
https://www.selleckchem.com/products/jw74.html

$$$$
