JX06
 OpenBabel08302521283D

 34 35  0  0  0  0  0  0  0  0999 V2000
    0.9035    0.6695    0.0867 S   0  0  0  0  0  0  0  0  0  0  0  0
    0.0591    0.2233   -1.7447 S   0  0  0  0  0  0  0  0  0  0  0  0
    3.7126    1.1395   -0.7116 S   0  0  0  0  0  0  0  0  0  0  0  0
   -2.7515   -0.2512   -0.9521 S   0  0  0  0  0  0  0  0  0  0  0  0
    3.0067   -4.1291   -0.2665 O   0  0  0  0  0  0  0  0  0  0  0  0
   -2.3436    4.9958   -2.1211 O   0  0  0  0  0  0  0  0  0  0  0  0
    2.7748   -1.2972    0.1370 N   0  0  0  0  0  0  0  0  0  0  0  0
   -1.8311    2.1745   -1.8577 N   0  0  0  0  0  0  0  0  0  0  0  0
    4.0940   -1.9480   -0.0113 C   0  0  0  0  0  0  0  0  0  0  0  0
    1.7694   -2.2398    0.6715 C   0  0  0  0  0  0  0  0  0  0  0  0
   -0.8028    3.1092   -2.3628 C   0  0  0  0  0  0  0  0  0  0  0  0
   -3.1982    2.7054   -2.0427 C   0  0  0  0  0  0  0  0  0  0  0  0
    3.9716   -3.2334   -0.8388 C   0  0  0  0  0  0  0  0  0  0  0  0
    1.7158   -3.5057   -0.1909 C   0  0  0  0  0  0  0  0  0  0  0  0
   -1.0242    4.5251   -1.8171 C   0  0  0  0  0  0  0  0  0  0  0  0
   -3.3255    4.1412   -1.5230 C   0  0  0  0  0  0  0  0  0  0  0  0
    2.5484    0.0525   -0.1583 C   0  0  0  0  0  0  0  0  0  0  0  0
   -1.5904    0.8331   -1.5189 C   0  0  0  0  0  0  0  0  0  0  0  0
    4.4336   -2.1907    1.0029 H   0  0  0  0  0  0  0  0  0  0  0  0
    4.8426   -1.2970   -0.4647 H   0  0  0  0  0  0  0  0  0  0  0  0
    2.0985   -2.4958    1.6864 H   0  0  0  0  0  0  0  0  0  0  0  0
    0.7695   -1.8131    0.7504 H   0  0  0  0  0  0  0  0  0  0  0  0
   -0.8958    3.1092   -3.4548 H   0  0  0  0  0  0  0  0  0  0  0  0
    0.2109    2.7987   -2.1089 H   0  0  0  0  0  0  0  0  0  0  0  0
   -3.3851    2.6874   -3.1248 H   0  0  0  0  0  0  0  0  0  0  0  0
   -3.9599    2.0850   -1.5674 H   0  0  0  0  0  0  0  0  0  0  0  0
    3.6806   -3.0100   -1.8720 H   0  0  0  0  0  0  0  0  0  0  0  0
    4.9337   -3.7543   -0.8647 H   0  0  0  0  0  0  0  0  0  0  0  0
    1.0232   -4.2293    0.2493 H   0  0  0  0  0  0  0  0  0  0  0  0
    1.3685   -3.2782   -1.2054 H   0  0  0  0  0  0  0  0  0  0  0  0
   -0.8738    4.5552   -0.7313 H   0  0  0  0  0  0  0  0  0  0  0  0
   -0.3098    5.2168   -2.2738 H   0  0  0  0  0  0  0  0  0  0  0  0
   -4.3129    4.5423   -1.7737 H   0  0  0  0  0  0  0  0  0  0  0  0
   -3.2165    4.1752   -0.4327 H   0  0  0  0  0  0  0  0  0  0  0  0
  1  2  1  0  0  0  0
  1 17  1  0  0  0  0
  2 18  1  0  0  0  0
  3 17  2  0  0  0  0
  4 18  2  0  0  0  0
  5 13  1  0  0  0  0
  5 14  1  0  0  0  0
  6 15  1  0  0  0  0
  6 16  1  0  0  0  0
  7  9  1  0  0  0  0
  7 10  1  0  0  0  0
  7 17  1  0  0  0  0
  8 11  1  0  0  0  0
  8 12  1  0  0  0  0
  8 18  1  0  0  0  0
  9 13  1  0  0  0  0
  9 19  1  0  0  0  0
  9 20  1  0  0  0  0
 10 14  1  0  0  0  0
 10 21  1  0  0  0  0
 10 22  1  0  0  0  0
 11 15  1  0  0  0  0
 11 23  1  0  0  0  0
 11 24  1  0  0  0  0
 12 16  1  0  0  0  0
 12 25  1  0  0  0  0
 12 26  1  0  0  0  0
 13 27  1  0  0  0  0
 13 28  1  0  0  0  0
 14 29  1  0  0  0  0
 14 30  1  0  0  0  0
 15 31  1  0  0  0  0
 15 32  1  0  0  0  0
 16 33  1  0  0  0  0
 16 34  1  0  0  0  0
M  END
>  <Mol_ID>
5411

>  <Formula>
C10H16N2O2S4

>  <MolWeight>
324.50624

>  <Cat>
S0983

>  <Name>
JX06

>  <Synonyms>
N/A

>  <Target>
PDK

>  <Form>
Free Base

>  <CAS>
729-46-4

>  <URL>
https://www.selleckchem.com/products/jx06.html

$$$$
