Kaempferol.cdx
 OpenBabel08302521363D

 31 33  0  0  0  0  0  0  0  0999 V2000
   -2.6286    0.3884   -0.0096 C   0  0  0  0  0  0  0  0  0  0  0  0
   -2.2799   -0.9569   -0.0175 C   0  0  0  0  0  0  0  0  0  0  0  0
   -0.9259   -1.3136   -0.0025 C   0  0  0  0  0  0  0  0  0  0  0  0
    0.0754   -0.3285    0.0169 C   0  0  0  0  0  0  0  0  0  0  0  0
   -0.3021    1.0148    0.0113 C   0  0  0  0  0  0  0  0  0  0  0  0
   -1.6519    1.3761    0.0060 C   0  0  0  0  0  0  0  0  0  0  0  0
    1.5258   -0.6430    0.0450 C   0  0  0  0  0  0  0  0  0  0  0  0
    2.4657    0.5186   -0.0158 C   0  0  0  0  0  0  0  0  0  0  0  0
    1.9435    1.7589   -0.0427 C   0  0  0  0  0  0  0  0  0  0  0  0
    0.5955    2.0510    0.0011 O   0  0  0  0  0  0  0  0  0  0  0  0
    3.8233    0.2432   -0.0422 O   0  0  0  0  0  0  0  0  0  0  0  0
    3.1336    3.4864   -1.3850 C   0  0  0  0  0  0  0  0  0  0  0  0
    2.7758    2.9665   -0.1319 C   0  0  0  0  0  0  0  0  0  0  0  0
    3.8921    4.6567   -1.4743 C   0  0  0  0  0  0  0  0  0  0  0  0
    4.2935    5.3008   -0.3088 C   0  0  0  0  0  0  0  0  0  0  0  0
    3.9652    4.7854    0.9403 C   0  0  0  0  0  0  0  0  0  0  0  0
    3.2066    3.6167    1.0314 C   0  0  0  0  0  0  0  0  0  0  0  0
   -3.9316    0.7852   -0.0242 O   0  0  0  0  0  0  0  0  0  0  0  0
   -0.6021   -2.6404   -0.0199 O   0  0  0  0  0  0  0  0  0  0  0  0
    1.9564   -1.7872    0.1169 O   0  0  0  0  0  0  0  0  0  0  0  0
    5.0133    6.4574   -0.3467 O   0  0  0  0  0  0  0  0  0  0  0  0
   -3.0480   -1.7223   -0.0353 H   0  0  0  0  0  0  0  0  0  0  0  0
   -1.9404    2.4242    0.0092 H   0  0  0  0  0  0  0  0  0  0  0  0
    4.3212    1.0756   -0.0133 H   0  0  0  0  0  0  0  0  0  0  0  0
    2.8117    2.9892   -2.2981 H   0  0  0  0  0  0  0  0  0  0  0  0
    4.1490    5.0505   -2.4529 H   0  0  0  0  0  0  0  0  0  0  0  0
    4.2879    5.3000    1.8413 H   0  0  0  0  0  0  0  0  0  0  0  0
    2.9438    3.2276    2.0125 H   0  0  0  0  0  0  0  0  0  0  0  0
   -4.5087    0.0043   -0.0511 H   0  0  0  0  0  0  0  0  0  0  0  0
   -1.3970   -3.1952   -0.0150 H   0  0  0  0  0  0  0  0  0  0  0  0
    5.1223    6.7294   -1.2730 H   0  0  0  0  0  0  0  0  0  0  0  0
  1  2  2  0  0  0  0
  1 18  1  0  0  0  0
  2  3  1  0  0  0  0
  2 22  1  0  0  0  0
  3  4  2  0  0  0  0
  3 19  1  0  0  0  0
  4  5  1  0  0  0  0
  4  7  1  0  0  0  0
  5  6  2  0  0  0  0
  6  1  1  0  0  0  0
  6 23  1  0  0  0  0
  7  8  1  0  0  0  0
  7 20  2  0  0  0  0
  8  9  2  0  0  0  0
  8 11  1  0  0  0  0
  9 10  1  0  0  0  0
 10  5  1  0  0  0  0
 11 24  1  0  0  0  0
 12 13  2  0  0  0  0
 12 14  1  0  0  0  0
 12 25  1  0  0  0  0
 13  9  1  0  0  0  0
 14 15  2  0  0  0  0
 14 26  1  0  0  0  0
 15 16  1  0  0  0  0
 15 21  1  0  0  0  0
 16 17  2  0  0  0  0
 16 27  1  0  0  0  0
 17 13  1  0  0  0  0
 17 28  1  0  0  0  0
 18 29  1  0  0  0  0
 19 30  1  0  0  0  0
 21 31  1  0  0  0  0
M  END
>  <Mol_ID>
697

>  <Formula>
C15H10O6

>  <MolWeight>
286.2363

>  <Cat>
S2314

>  <Name>
Kaempferol (NSC 407289)

>  <Synonyms>
Robigenin

>  <Target>
Estrogen/progestogen Receptor,Fatty Acid Synthase

>  <Form>
free base

>  <CAS>
520-18-3

>  <URL>
http://selleckchem.com/products/Kaempferol.html

$$$$
