Kenpaullone.cdx
 OpenBabel08302520003D

 31 34  0  0  0  0  0  0  0  0999 V2000
   -4.4338   -0.4437   -0.1867 C   0  0  0  0  0  0  0  0  0  0  0  0
   -3.2239   -1.1030   -0.4186 C   0  0  0  0  0  0  0  0  0  0  0  0
   -2.0157   -0.4037   -0.2205 C   0  0  0  0  0  0  0  0  0  0  0  0
   -2.0689    0.9245    0.2000 C   0  0  0  0  0  0  0  0  0  0  0  0
   -3.2747    1.5902    0.4485 C   0  0  0  0  0  0  0  0  0  0  0  0
   -4.4630    0.8800    0.2448 C   0  0  0  0  0  0  0  0  0  0  0  0
   -0.6390   -0.7458   -0.3471 C   0  0  0  0  0  0  0  0  0  0  0  0
    0.1146    0.3730   -0.0533 C   0  0  0  0  0  0  0  0  0  0  0  0
   -0.7682    1.3659    0.3051 N   0  0  0  0  0  0  0  0  0  0  0  0
   -0.0498   -2.0479   -0.7330 C   0  0  0  0  0  0  0  0  0  0  0  0
    0.8867   -2.5651    0.3372 C   0  0  0  0  0  0  0  0  0  0  0  0
    2.0175   -1.8614    0.6542 N   0  0  0  0  0  0  0  0  0  0  0  0
    2.4302   -0.5626    0.2872 C   0  0  0  0  0  0  0  0  0  0  0  0
    1.5734    0.5051   -0.0655 C   0  0  0  0  0  0  0  0  0  0  0  0
    3.8178   -0.3466    0.3259 C   0  0  0  0  0  0  0  0  0  0  0  0
    4.3652    0.8806   -0.0458 C   0  0  0  0  0  0  0  0  0  0  0  0
    3.5290    1.9226   -0.4259 C   0  0  0  0  0  0  0  0  0  0  0  0
    2.1450    1.7401   -0.4242 C   0  0  0  0  0  0  0  0  0  0  0  0
    0.7239   -3.6768    0.8457 O   0  0  0  0  0  0  0  0  0  0  0  0
   -6.0597   -1.3713   -0.4686 Br  0  0  0  0  0  0  0  0  0  0  0  0
   -3.2095   -2.1369   -0.7485 H   0  0  0  0  0  0  0  0  0  0  0  0
   -3.2974    2.6219    0.7875 H   0  0  0  0  0  0  0  0  0  0  0  0
   -5.4138    1.3749    0.4270 H   0  0  0  0  0  0  0  0  0  0  0  0
   -0.5053    2.2890    0.6192 H   0  0  0  0  0  0  0  0  0  0  0  0
    0.5102   -1.9560   -1.6717 H   0  0  0  0  0  0  0  0  0  0  0  0
   -0.8288   -2.7994   -0.8989 H   0  0  0  0  0  0  0  0  0  0  0  0
    2.6647   -2.4180    1.1998 H   0  0  0  0  0  0  0  0  0  0  0  0
    4.4942   -1.1519    0.6043 H   0  0  0  0  0  0  0  0  0  0  0  0
    5.4440    1.0156   -0.0503 H   0  0  0  0  0  0  0  0  0  0  0  0
    3.9522    2.8778   -0.7265 H   0  0  0  0  0  0  0  0  0  0  0  0
    1.5167    2.5734   -0.7302 H   0  0  0  0  0  0  0  0  0  0  0  0
  1  2  2  0  0  0  0
  1 20  1  0  0  0  0
  2  3  1  0  0  0  0
  2 21  1  0  0  0  0
  3  4  2  0  0  0  0
  3  7  1  0  0  0  0
  4  5  1  0  0  0  0
  5  6  2  0  0  0  0
  5 22  1  0  0  0  0
  6  1  1  0  0  0  0
  6 23  1  0  0  0  0
  7  8  2  0  0  0  0
  7 10  1  0  0  0  0
  8  9  1  0  0  0  0
  9  4  1  0  0  0  0
  9 24  1  0  0  0  0
 10 11  1  0  0  0  0
 10 25  1  0  0  0  0
 10 26  1  0  0  0  0
 11 12  1  0  0  0  0
 11 19  2  0  0  0  0
 12 13  1  0  0  0  0
 12 27  1  0  0  0  0
 13 14  2  0  0  0  0
 13 15  1  0  0  0  0
 14  8  1  0  0  0  0
 15 16  2  0  0  0  0
 15 28  1  0  0  0  0
 16 17  1  0  0  0  0
 16 29  1  0  0  0  0
 17 18  2  0  0  0  0
 17 30  1  0  0  0  0
 18 14  1  0  0  0  0
 18 31  1  0  0  0  0
M  END
>  <Mol_ID>
2660

>  <Formula>
C16H11BrN2O

>  <MolWeight>
327.17534

>  <Cat>
S7917

>  <Name>
Kenpaullone

>  <Synonyms>
9-Bromopaullone, NSC-664704

>  <Target>
CDK

>  <Form>
free base

>  <CAS>
142273-20-9

>  <URL>
http://selleckchem.com/products/kenpaullone.html

$$$$
