Ketorolac.cdx
 OpenBabel08302522063D

 32 34  0  0  0  0  0  0  0  0999 V2000
   -5.3885   -2.6799    1.0912 C   0  0  0  0  0  0  0  0  0  0  0  0
   -4.0045   -2.7406    1.2596 C   0  0  0  0  0  0  0  0  0  0  0  0
   -3.1973   -1.6897    0.8126 C   0  0  0  0  0  0  0  0  0  0  0  0
   -3.7767   -0.5705    0.2014 C   0  0  0  0  0  0  0  0  0  0  0  0
   -5.1653   -0.5328    0.0088 C   0  0  0  0  0  0  0  0  0  0  0  0
   -5.9682   -1.5795    0.4627 C   0  0  0  0  0  0  0  0  0  0  0  0
   -2.9021    0.5434   -0.2759 C   0  0  0  0  0  0  0  0  0  0  0  0
   -3.4146    1.9037   -0.2498 C   0  0  0  0  0  0  0  0  0  0  0  0
   -1.7807    0.2647   -0.6947 O   0  0  0  0  0  0  0  0  0  0  0  0
   -4.3218    2.5087    0.6225 C   0  0  0  0  0  0  0  0  0  0  0  0
   -4.5346    3.8594    0.2177 C   0  0  0  0  0  0  0  0  0  0  0  0
   -3.7298    4.0503   -0.8700 C   0  0  0  0  0  0  0  0  0  0  0  0
   -3.0500    2.8916   -1.1092 N   0  0  0  0  0  0  0  0  0  0  0  0
   -3.3771    5.0964   -1.8618 C   0  0  3  0  0  0  0  0  0  0  0  0
   -2.6185    4.2793   -2.9425 C   0  0  0  0  0  0  0  0  0  0  0  0
   -2.1775    2.9646   -2.2683 C   0  0  0  0  0  0  0  0  0  0  0  0
   -2.4999    6.1592   -1.2352 C   0  0  0  0  0  0  0  0  0  0  0  0
   -1.2817    6.1752   -1.1898 O   0  0  0  0  0  0  0  0  0  0  0  0
   -3.2145    7.1715   -0.6982 O   0  0  0  0  0  0  0  0  0  0  0  0
   -6.0161   -3.4951    1.4431 H   0  0  0  0  0  0  0  0  0  0  0  0
   -3.5544   -3.6087    1.7361 H   0  0  0  0  0  0  0  0  0  0  0  0
   -2.1184   -1.7486    0.9410 H   0  0  0  0  0  0  0  0  0  0  0  0
   -5.6354    0.3027   -0.5039 H   0  0  0  0  0  0  0  0  0  0  0  0
   -7.0456   -1.5366    0.3213 H   0  0  0  0  0  0  0  0  0  0  0  0
   -4.7966    2.0245    1.4671 H   0  0  0  0  0  0  0  0  0  0  0  0
   -5.1945    4.5850    0.6756 H   0  0  0  0  0  0  0  0  0  0  0  0
   -4.2582    5.5707   -2.3072 H   0  0  0  0  0  0  0  0  0  0  0  0
   -1.7713    4.8132   -3.3868 H   0  0  0  0  0  0  0  0  0  0  0  0
   -3.3126    4.0445   -3.7600 H   0  0  0  0  0  0  0  0  0  0  0  0
   -2.3484    2.0950   -2.9082 H   0  0  0  0  0  0  0  0  0  0  0  0
   -1.1450    3.0034   -1.9118 H   0  0  0  0  0  0  0  0  0  0  0  0
   -2.5356    7.7670   -0.3177 H   0  0  0  0  0  0  0  0  0  0  0  0
  1  2  2  0  0  0  0
  1 20  1  0  0  0  0
  2  3  1  0  0  0  0
  2 21  1  0  0  0  0
  3  4  2  0  0  0  0
  3 22  1  0  0  0  0
  4  5  1  0  0  0  0
  4  7  1  0  0  0  0
  5  6  2  0  0  0  0
  5 23  1  0  0  0  0
  6  1  1  0  0  0  0
  6 24  1  0  0  0  0
  7  8  1  0  0  0  0
  7  9  2  0  0  0  0
  8 10  2  0  0  0  0
 10 11  1  0  0  0  0
 10 25  1  0  0  0  0
 11 12  2  0  0  0  0
 11 26  1  0  0  0  0
 12 13  1  0  0  0  0
 12 14  1  0  0  0  0
 13  8  1  0  0  0  0
 14 15  1  0  0  0  0
 14 17  1  0  0  0  0
 14 27  1  0  0  0  0
 15 16  1  0  0  0  0
 15 28  1  0  0  0  0
 15 29  1  0  0  0  0
 16 13  1  0  0  0  0
 16 30  1  0  0  0  0
 16 31  1  0  0  0  0
 17 18  2  0  0  0  0
 17 19  1  0  0  0  0
 19 32  1  0  0  0  0
M  END
>  <Mol_ID>
1455

>  <Formula>
C15H13NO3

>  <MolWeight>
255.26862

>  <Cat>
S1646

>  <Name>
Ketorolac

>  <Synonyms>
N/A

>  <Target>
COX

>  <Form>
free base

>  <CAS>
74103-06-3

>  <URL>
http://selleckchem.com/products/Ketorolac-Tromethamine(Toradol).html

$$$$
