KHS101 hydrochloride
 OpenBabel08302520143D

 45 47  0  0  0  0  0  0  0  0999 V2000
    0.1241    1.2810    0.1589 C   0  0  0  0  0  0  0  0  0  0  0  0
    1.2607    0.5648    0.1218 N   0  0  0  0  0  0  0  0  0  0  0  0
    1.1629   -0.7706   -0.0112 C   0  0  0  0  0  0  0  0  0  0  0  0
   -0.0651   -1.3927   -0.1107 C   0  0  0  0  0  0  0  0  0  0  0  0
   -1.1722   -0.5908   -0.0195 C   0  0  0  0  0  0  0  0  0  0  0  0
   -1.1028    0.7415    0.1095 N   0  0  0  0  0  0  0  0  0  0  0  0
    0.2460    2.6561    0.2409 N   0  0  0  0  0  0  0  0  0  0  0  0
    2.3059   -1.5790   -0.1681 N   0  0  0  0  0  0  0  0  0  0  0  0
   -0.8454    3.3487    0.8980 C   0  0  0  0  0  0  0  0  0  0  0  0
   -0.5229    6.7849    2.9544 S   0  0  0  0  0  0  0  0  0  0  0  0
    0.9614    6.1847    2.3093 C   0  0  0  0  0  0  0  0  0  0  0  0
    0.8532    5.0332    1.6715 N   0  0  0  0  0  0  0  0  0  0  0  0
   -0.4791    4.6296    1.6075 C   0  0  0  0  0  0  0  0  0  0  0  0
   -1.3610    5.4647    2.2664 C   0  0  0  0  0  0  0  0  0  0  0  0
    2.2292    6.9090    2.5110 C   0  0  0  0  0  0  0  0  0  0  0  0
    3.4349    6.1902    2.5466 C   0  0  0  0  0  0  0  0  0  0  0  0
    4.6591    6.8448    2.7130 C   0  0  0  0  0  0  0  0  0  0  0  0
    4.6971    8.2314    2.8374 C   0  0  0  0  0  0  0  0  0  0  0  0
    3.5133    8.9630    2.7973 C   0  0  0  0  0  0  0  0  0  0  0  0
    2.2892    8.3073    2.6351 C   0  0  0  0  0  0  0  0  0  0  0  0
    3.5617   -0.9954    0.2966 C   0  0  0  0  0  0  0  0  0  0  0  0
    4.7126   -1.9972    0.0618 C   0  0  0  0  0  0  0  0  0  0  0  0
    4.9296   -2.2724   -1.4293 C   0  0  0  0  0  0  0  0  0  0  0  0
    6.0090   -1.4848    0.6895 C   0  0  0  0  0  0  0  0  0  0  0  0
   -0.1610   -2.4614   -0.2409 H   0  0  0  0  0  0  0  0  0  0  0  0
   -2.1740   -1.0061   -0.0588 H   0  0  0  0  0  0  0  0  0  0  0  0
    1.1662    2.9033    0.5840 H   0  0  0  0  0  0  0  0  0  0  0  0
    2.1480   -2.4946    0.2395 H   0  0  0  0  0  0  0  0  0  0  0  0
   -1.6077    3.5887    0.1432 H   0  0  0  0  0  0  0  0  0  0  0  0
   -1.3261    2.7131    1.6533 H   0  0  0  0  0  0  0  0  0  0  0  0
   -2.4306    5.3584    2.3791 H   0  0  0  0  0  0  0  0  0  0  0  0
    3.4242    5.1063    2.4422 H   0  0  0  0  0  0  0  0  0  0  0  0
    5.5818    6.2709    2.7380 H   0  0  0  0  0  0  0  0  0  0  0  0
    5.6489    8.7422    2.9577 H   0  0  0  0  0  0  0  0  0  0  0  0
    3.5394   10.0463    2.8832 H   0  0  0  0  0  0  0  0  0  0  0  0
    1.3868    8.9118    2.5873 H   0  0  0  0  0  0  0  0  0  0  0  0
    3.7802   -0.0515   -0.2167 H   0  0  0  0  0  0  0  0  0  0  0  0
    3.4838   -0.7921    1.3728 H   0  0  0  0  0  0  0  0  0  0  0  0
    4.4596   -2.9504    0.5456 H   0  0  0  0  0  0  0  0  0  0  0  0
    5.1363   -1.3482   -1.9779 H   0  0  0  0  0  0  0  0  0  0  0  0
    5.7796   -2.9509   -1.5780 H   0  0  0  0  0  0  0  0  0  0  0  0
    4.0520   -2.7482   -1.8756 H   0  0  0  0  0  0  0  0  0  0  0  0
    5.8906   -1.3466    1.7690 H   0  0  0  0  0  0  0  0  0  0  0  0
    6.8252   -2.1994    0.5344 H   0  0  0  0  0  0  0  0  0  0  0  0
    6.3105   -0.5269    0.2532 H   0  0  0  0  0  0  0  0  0  0  0  0
  1  2  2  0  0  0  0
  1  6  1  0  0  0  0
  1  7  1  0  0  0  0
  2  3  1  0  0  0  0
  3  4  2  0  0  0  0
  3  8  1  0  0  0  0
  4  5  1  0  0  0  0
  4 25  1  0  0  0  0
  5  6  2  0  0  0  0
  5 26  1  0  0  0  0
  7  9  1  0  0  0  0
  7 27  1  0  0  0  0
  8 21  1  0  0  0  0
  8 28  1  0  0  0  0
  9 13  1  0  0  0  0
  9 29  1  0  0  0  0
  9 30  1  0  0  0  0
 10 11  1  0  0  0  0
 10 14  1  0  0  0  0
 11 12  2  0  0  0  0
 11 15  1  0  0  0  0
 12 13  1  0  0  0  0
 13 14  2  0  0  0  0
 14 31  1  0  0  0  0
 15 16  2  0  0  0  0
 15 20  1  0  0  0  0
 16 17  1  0  0  0  0
 16 32  1  0  0  0  0
 17 18  2  0  0  0  0
 17 33  1  0  0  0  0
 18 19  1  0  0  0  0
 18 34  1  0  0  0  0
 19 20  2  0  0  0  0
 19 35  1  0  0  0  0
 20 36  1  0  0  0  0
 21 22  1  0  0  0  0
 21 37  1  0  0  0  0
 21 38  1  0  0  0  0
 22 23  1  0  0  0  0
 22 24  1  0  0  0  0
 22 39  1  0  0  0  0
 23 40  1  0  0  0  0
 23 41  1  0  0  0  0
 23 42  1  0  0  0  0
 24 43  1  0  0  0  0
 24 44  1  0  0  0  0
 24 45  1  0  0  0  0
M  END
>  <Mol_ID>
3182

>  <Formula>
C18H22ClN5S

>  <MolWeight>
375.91878

>  <Cat>
S5919

>  <Name>
KHS101 hydrochloride

>  <Synonyms>
N/A

>  <Target>
Microtubule Associated,TACC3

>  <Form>
hydrochloride

>  <CAS>
1784282-12-7

>  <URL>
http://www.selleckchem.com/products/khs101-hydrochloride.html

$$$$
