Kinsenoside
 OpenBabel08302521493D

 34 35  0  0  1  0  0  0  0  0999 V2000
   -0.8944    0.3254    1.4805 O   0  0  0  0  0  0  0  0  0  0  0  0
    0.8531    2.5962    1.0046 O   0  0  0  0  0  0  0  0  0  0  0  0
    2.7443   -2.4550    2.7526 C   0  0  0  0  0  0  0  0  0  0  0  0
    2.0873   -3.5477    2.1065 O   0  0  0  0  0  0  0  0  0  0  0  0
    3.3422    2.4431    2.5751 O   0  0  0  0  0  0  0  0  0  0  0  0
    4.5412   -0.1735    2.5446 O   0  0  0  0  0  0  0  0  0  0  0  0
   -3.0928    0.2707   -1.9652 O   0  0  0  0  0  0  0  0  0  0  0  0
    0.5256    0.1718    1.3576 C   0  0  2  0  0  0  0  0  0  0  0  0
    0.9684   -0.9522    2.1206 O   0  0  0  0  0  0  0  0  0  0  0  0
    1.1921    1.4821    1.8525 C   0  0  1  0  0  0  0  0  0  0  0  0
    2.3899   -1.1496    2.0309 C   0  0  1  0  0  0  0  0  0  0  0  0
    2.7171    1.3277    1.9254 C   0  0  2  0  0  0  0  0  0  0  0  0
    3.1303    0.0374    2.6456 C   0  0  2  0  0  0  0  0  0  0  0  0
   -1.6728   -0.8040    1.0695 C   0  0  2  0  0  0  0  0  0  0  0  0
   -1.7107   -0.9739   -0.4296 C   0  0  0  0  0  0  0  0  0  0  0  0
   -3.1345   -0.5356    1.3920 C   0  0  0  0  0  0  0  0  0  0  0  0
   -2.8623   -0.1105   -0.8237 C   0  0  0  0  0  0  0  0  0  0  0  0
   -3.6695    0.1416    0.2472 O   0  0  0  0  0  0  0  0  0  0  0  0
    1.2700    2.4759    0.1340 H   0  0  0  0  0  0  0  0  0  0  0  0
    3.8199   -2.6517    2.7325 H   0  0  0  0  0  0  0  0  0  0  0  0
    2.4066   -2.4372    3.7939 H   0  0  0  0  0  0  0  0  0  0  0  0
    1.1381   -3.3284    2.1167 H   0  0  0  0  0  0  0  0  0  0  0  0
    2.8956    2.5941    3.4298 H   0  0  0  0  0  0  0  0  0  0  0  0
    4.9402    0.6025    2.1055 H   0  0  0  0  0  0  0  0  0  0  0  0
    0.7731    0.0218    0.3008 H   0  0  0  0  0  0  0  0  0  0  0  0
    0.8001    1.7394    2.8435 H   0  0  0  0  0  0  0  0  0  0  0  0
    2.6582   -1.2695    0.9721 H   0  0  0  0  0  0  0  0  0  0  0  0
    3.1357    1.3297    0.9106 H   0  0  0  0  0  0  0  0  0  0  0  0
    2.8879    0.1318    3.7117 H   0  0  0  0  0  0  0  0  0  0  0  0
   -1.3226   -1.6946    1.6014 H   0  0  0  0  0  0  0  0  0  0  0  0
   -1.9463   -2.0060   -0.7064 H   0  0  0  0  0  0  0  0  0  0  0  0
   -0.8075   -0.6360   -0.9402 H   0  0  0  0  0  0  0  0  0  0  0  0
   -3.7009   -1.4639    1.5206 H   0  0  0  0  0  0  0  0  0  0  0  0
   -3.2703    0.0980    2.2722 H   0  0  0  0  0  0  0  0  0  0  0  0
  2 19  1  0  0  0  0
  3  4  1  0  0  0  0
  3 20  1  0  0  0  0
  3 21  1  0  0  0  0
  4 22  1  0  0  0  0
  5 23  1  0  0  0  0
  6 24  1  0  0  0  0
  7 17  2  0  0  0  0
  8  9  1  0  0  0  0
  8 10  1  0  0  0  0
  8 25  1  6  0  0  0
  8  1  1  0  0  0  0
  9 11  1  0  0  0  0
 10  2  1  0  0  0  0
 10 12  1  0  0  0  0
 10 26  1  1  0  0  0
 11  3  1  0  0  0  0
 11 13  1  0  0  0  0
 11 27  1  6  0  0  0
 12  5  1  0  0  0  0
 12 13  1  0  0  0  0
 12 28  1  6  0  0  0
 13  6  1  0  0  0  0
 13 29  1  1  0  0  0
 14  1  1  0  0  0  0
 14 15  1  0  0  0  0
 14 16  1  0  0  0  0
 14 30  1  1  0  0  0
 15 17  1  0  0  0  0
 15 31  1  0  0  0  0
 15 32  1  0  0  0  0
 16 18  1  0  0  0  0
 16 33  1  0  0  0  0
 16 34  1  0  0  0  0
 17 18  1  0  0  0  0
M  END
>  <Mol_ID>
9806

>  <Formula>
C10H16O8

>  <MolWeight>
264.22924

>  <Cat>
E2347

>  <Name>
Kinsenoside

>  <Synonyms>
3-(R)-3-¦Â-D-glucopyranosyloxybutanolide; Kin

>  <Target>
Nrf2

>  <Form>
Free Base

>  <CAS>
151870-74-5

>  <URL>
https://www.selleckchem.com/products/kinsenoside.html

$$$$
