KKL-10
 OpenBabel08302521453D

 31 33  0  0  0  0  0  0  0  0999 V2000
   -6.6213   -5.5049    0.1617 Br  0  0  0  0  0  0  0  0  0  0  0  0
   -5.9778   -2.4338    0.1648 S   0  0  0  0  0  0  0  0  0  0  0  0
   -4.1801    2.4358   -0.7613 O   0  0  0  0  0  0  0  0  0  0  0  0
   -3.3356    0.0521   -1.3188 O   0  0  0  0  0  0  0  0  0  0  0  0
   -5.1550    0.4385    0.0420 N   0  0  0  0  0  0  0  0  0  0  0  0
   -5.3496    3.9072    0.4400 N   0  0  0  0  0  0  0  0  0  0  0  0
   -5.7939    2.6343    0.7604 N   0  0  0  0  0  0  0  0  0  0  0  0
   -3.5633    4.7259   -1.1516 C   0  0  0  0  0  0  0  0  0  0  0  0
   -1.8974    6.6127   -2.4387 C   0  0  0  0  0  0  0  0  0  0  0  0
   -2.6935    4.3365   -2.1820 C   0  0  0  0  0  0  0  0  0  0  0  0
   -3.5968    6.0774   -0.7836 C   0  0  0  0  0  0  0  0  0  0  0  0
   -4.4020    3.7524   -0.4644 C   0  0  0  0  0  0  0  0  0  0  0  0
   -1.8694    5.2684   -2.8189 C   0  0  0  0  0  0  0  0  0  0  0  0
   -2.7692    7.0115   -1.4187 C   0  0  0  0  0  0  0  0  0  0  0  0
   -5.0699    1.7997    0.0472 C   0  0  0  0  0  0  0  0  0  0  0  0
   -1.0009    7.6155   -3.1032 C   0  0  0  0  0  0  0  0  0  0  0  0
   -4.5820   -1.7962   -0.6052 C   0  0  0  0  0  0  0  0  0  0  0  0
   -4.2923   -0.3643   -0.6700 C   0  0  0  0  0  0  0  0  0  0  0  0
   -3.8147   -2.8120   -1.1549 C   0  0  0  0  0  0  0  0  0  0  0  0
   -4.3900   -4.1032   -0.9676 C   0  0  0  0  0  0  0  0  0  0  0  0
   -5.5663   -4.0190   -0.2686 C   0  0  0  0  0  0  0  0  0  0  0  0
   -5.8767    0.0332    0.6190 H   0  0  0  0  0  0  0  0  0  0  0  0
   -2.6417    3.2956   -2.4987 H   0  0  0  0  0  0  0  0  0  0  0  0
   -4.2612    6.4132    0.0110 H   0  0  0  0  0  0  0  0  0  0  0  0
   -1.2026    4.9305   -3.6091 H   0  0  0  0  0  0  0  0  0  0  0  0
   -2.8054    8.0534   -1.1061 H   0  0  0  0  0  0  0  0  0  0  0  0
   -1.5947    8.4187   -3.5507 H   0  0  0  0  0  0  0  0  0  0  0  0
   -0.3066    8.0421   -2.3724 H   0  0  0  0  0  0  0  0  0  0  0  0
   -0.4073    7.1555   -3.9005 H   0  0  0  0  0  0  0  0  0  0  0  0
   -2.8849   -2.6254   -1.6827 H   0  0  0  0  0  0  0  0  0  0  0  0
   -3.9588   -5.0269   -1.3345 H   0  0  0  0  0  0  0  0  0  0  0  0
  1 21  1  0  0  0  0
  2 17  1  0  0  0  0
  2 21  1  0  0  0  0
  3 12  1  0  0  0  0
  3 15  1  0  0  0  0
  4 18  2  0  0  0  0
  5 15  1  0  0  0  0
  5 18  1  0  0  0  0
  5 22  1  0  0  0  0
  6  7  1  0  0  0  0
  6 12  2  0  0  0  0
  7 15  2  0  0  0  0
  8 10  2  0  0  0  0
  8 11  1  0  0  0  0
  8 12  1  0  0  0  0
  9 13  2  0  0  0  0
  9 14  1  0  0  0  0
  9 16  1  0  0  0  0
 10 13  1  0  0  0  0
 10 23  1  0  0  0  0
 11 14  2  0  0  0  0
 11 24  1  0  0  0  0
 13 25  1  0  0  0  0
 14 26  1  0  0  0  0
 16 27  1  0  0  0  0
 16 28  1  0  0  0  0
 16 29  1  0  0  0  0
 17 18  1  0  0  0  0
 17 19  2  0  0  0  0
 19 20  1  0  0  0  0
 19 30  1  0  0  0  0
 20 21  2  0  0  0  0
 20 31  1  0  0  0  0
M  END
>  <Mol_ID>
9361

>  <Formula>
C14H10BrN3O2S

>  <MolWeight>
364.2171

>  <Cat>
S0147

>  <Name>
KKL-10

>  <Synonyms>
N/A

>  <Target>
Bacterial

>  <Form>
Free Base

>  <CAS>
952849-76-2

>  <URL>
https://www.selleckchem.com/products/kkl-10.html

$$$$
