KPT-335.cdx
 OpenBabel08302519583D

 43 45  0  0  0  0  0  0  0  0999 V2000
    0.8099    0.1923    0.4376 N   0  0  0  0  0  0  0  0  0  0  0  0
    0.8922   -1.0731   -0.0073 C   0  0  0  0  0  0  0  0  0  0  0  0
   -0.3103   -1.5651   -0.4451 N   0  0  0  0  0  0  0  0  0  0  0  0
   -1.0943   -0.5058   -0.4389 C   0  0  0  0  0  0  0  0  0  0  0  0
   -0.4094    0.6207   -0.0238 N   0  0  0  0  0  0  0  0  0  0  0  0
   -0.8328    1.9601    0.0447 C   0  0  0  0  0  0  0  0  0  0  0  0
   -1.6560    2.7325   -0.6877 C   0  0  0  0  0  0  0  0  0  0  0  0
   -2.2954    2.5028   -2.0260 C   0  0  0  0  0  0  0  0  0  0  0  0
   -2.0734    1.5011   -2.6847 O   0  0  0  0  0  0  0  0  0  0  0  0
   -3.0825    3.5823   -2.4428 N   0  0  0  0  0  0  0  0  0  0  0  0
   -3.6172    3.5963   -3.7626 N   0  0  0  0  0  0  0  0  0  0  0  0
   -3.8233    4.9092   -4.2895 C   0  0  0  0  0  0  0  0  0  0  0  0
   -4.2889    5.0302   -5.6063 C   0  0  0  0  0  0  0  0  0  0  0  0
   -4.5587    6.2868   -6.1454 C   0  0  0  0  0  0  0  0  0  0  0  0
   -4.3680    7.4178   -5.3634 C   0  0  0  0  0  0  0  0  0  0  0  0
   -3.9220    7.2197   -4.0633 C   0  0  0  0  0  0  0  0  0  0  0  0
   -3.6558    6.0057   -3.5097 N   0  0  0  0  0  0  0  0  0  0  0  0
    2.1708   -1.7963   -0.1768 C   0  0  0  0  0  0  0  0  0  0  0  0
    3.3878   -1.1372    0.0850 C   0  0  0  0  0  0  0  0  0  0  0  0
    4.6236   -1.6855   -0.3063 C   0  0  0  0  0  0  0  0  0  0  0  0
    4.6447   -2.9516   -0.9003 C   0  0  0  0  0  0  0  0  0  0  0  0
    3.4603   -3.6796   -1.0989 C   0  0  0  0  0  0  0  0  0  0  0  0
    2.2267   -3.0860   -0.7431 C   0  0  0  0  0  0  0  0  0  0  0  0
    5.9151   -0.9142   -0.1739 C   0  0  0  0  0  0  0  0  0  0  0  0
    3.5420   -5.0708   -1.6939 C   0  0  0  0  0  0  0  0  0  0  0  0
    4.7956   -5.3834   -2.1231 F   0  0  0  0  0  0  0  0  0  0  0  0
    3.2001   -6.0391   -0.8012 F   0  0  0  0  0  0  0  0  0  0  0  0
    2.7263   -5.2405   -2.7712 F   0  0  0  0  0  0  0  0  0  0  0  0
    5.7939    0.2563    0.5070 F   0  0  0  0  0  0  0  0  0  0  0  0
    6.8848   -1.6252    0.4659 F   0  0  0  0  0  0  0  0  0  0  0  0
    6.4388   -0.5884   -1.3899 F   0  0  0  0  0  0  0  0  0  0  0  0
   -2.1454   -0.4820   -0.6885 H   0  0  0  0  0  0  0  0  0  0  0  0
   -0.3130    2.4636    0.8615 H   0  0  0  0  0  0  0  0  0  0  0  0
   -1.7510    3.7651   -0.3519 H   0  0  0  0  0  0  0  0  0  0  0  0
   -3.2753    4.4270   -1.9059 H   0  0  0  0  0  0  0  0  0  0  0  0
   -3.0362    3.0508   -4.4045 H   0  0  0  0  0  0  0  0  0  0  0  0
   -4.4626    4.1440   -6.2094 H   0  0  0  0  0  0  0  0  0  0  0  0
   -4.9306    6.3866   -7.1665 H   0  0  0  0  0  0  0  0  0  0  0  0
   -4.5666    8.4156   -5.7412 H   0  0  0  0  0  0  0  0  0  0  0  0
   -3.7628    8.0709   -3.4072 H   0  0  0  0  0  0  0  0  0  0  0  0
    3.3714   -0.1528    0.5536 H   0  0  0  0  0  0  0  0  0  0  0  0
    5.6003   -3.3694   -1.2299 H   0  0  0  0  0  0  0  0  0  0  0  0
    1.3012   -3.6262   -0.9458 H   0  0  0  0  0  0  0  0  0  0  0  0
  1  2  2  0  0  0  0
  2  3  1  0  0  0  0
  2 18  1  0  0  0  0
  3  4  2  0  0  0  0
  4  5  1  0  0  0  0
  4 32  1  0  0  0  0
  5  1  1  0  0  0  0
  5  6  1  0  0  0  0
  6  7  2  0  0  0  0
  6 33  1  0  0  0  0
  7  8  1  0  0  0  0
  7 34  1  0  0  0  0
  8  9  2  0  0  0  0
  8 10  1  0  0  0  0
 10 11  1  0  0  0  0
 10 35  1  0  0  0  0
 11 12  1  0  0  0  0
 11 36  1  0  0  0  0
 12 13  2  0  0  0  0
 13 14  1  0  0  0  0
 13 37  1  0  0  0  0
 14 15  2  0  0  0  0
 14 38  1  0  0  0  0
 15 16  1  0  0  0  0
 15 39  1  0  0  0  0
 16 17  2  0  0  0  0
 16 40  1  0  0  0  0
 17 12  1  0  0  0  0
 18 19  2  0  0  0  0
 19 20  1  0  0  0  0
 19 41  1  0  0  0  0
 20 21  2  0  0  0  0
 20 24  1  0  0  0  0
 21 22  1  0  0  0  0
 21 42  1  0  0  0  0
 22 23  2  0  0  0  0
 22 25  1  0  0  0  0
 23 18  1  0  0  0  0
 23 43  1  0  0  0  0
 24 29  1  0  0  0  0
 24 30  1  0  0  0  0
 24 31  1  0  0  0  0
 25 26  1  0  0  0  0
 25 27  1  0  0  0  0
 25 28  1  0  0  0  0
M  END
>  <Mol_ID>
2504

>  <Formula>
C18H12F6N6O

>  <MolWeight>
442.3178992

>  <Cat>
S7707

>  <Name>
Verdinexor (KPT-335)

>  <Synonyms>
ATG-527

>  <Target>
CRM1

>  <Form>
free base

>  <CAS>
1392136-43-4

>  <URL>
http://selleckchem.com/products/verdinexor-kpt-335.html

$$$$
