KPT-330.cdx
 OpenBabel08302519583D

 42 44  0  0  0  0  0  0  0  0999 V2000
    1.5608   -0.2212   -0.6844 C   0  0  0  0  0  0  0  0  0  0  0  0
    0.9574   -1.4193   -0.2775 C   0  0  0  0  0  0  0  0  0  0  0  0
   -0.2801   -1.4183    0.3859 C   0  0  0  0  0  0  0  0  0  0  0  0
   -0.9368   -0.1870    0.6041 C   0  0  0  0  0  0  0  0  0  0  0  0
   -0.3481    1.0340    0.2251 C   0  0  0  0  0  0  0  0  0  0  0  0
    0.8961    0.9944   -0.4317 C   0  0  0  0  0  0  0  0  0  0  0  0
   -1.0082    2.3194    0.5044 C   0  0  0  0  0  0  0  0  0  0  0  0
   -2.1625    2.4241    1.2375 N   0  0  0  0  0  0  0  0  0  0  0  0
   -2.4553    3.7035    1.1644 C   0  0  0  0  0  0  0  0  0  0  0  0
   -1.5695    4.3652    0.3376 N   0  0  0  0  0  0  0  0  0  0  0  0
   -0.5404    3.5044    0.0819 N   0  0  0  0  0  0  0  0  0  0  0  0
    2.9066   -0.2392   -1.3724 C   0  0  0  0  0  0  0  0  0  0  0  0
    3.5445   -1.4402   -1.2715 F   0  0  0  0  0  0  0  0  0  0  0  0
    2.8170    0.0217   -2.7048 F   0  0  0  0  0  0  0  0  0  0  0  0
    3.7704    0.6805   -0.8625 F   0  0  0  0  0  0  0  0  0  0  0  0
   -0.8714   -2.7232    0.8769 C   0  0  0  0  0  0  0  0  0  0  0  0
    0.0336   -3.7469    0.8794 F   0  0  0  0  0  0  0  0  0  0  0  0
   -1.3389   -2.6425    2.1512 F   0  0  0  0  0  0  0  0  0  0  0  0
   -1.9101   -3.1529    0.1121 F   0  0  0  0  0  0  0  0  0  0  0  0
   -1.6355    5.6539   -0.2006 C   0  0  0  0  0  0  0  0  0  0  0  0
   -2.6841    6.4283   -0.5268 C   0  0  0  0  0  0  0  0  0  0  0  0
   -4.1219    6.0822   -0.4300 C   0  0  0  0  0  0  0  0  0  0  0  0
   -4.6640    5.8737    0.6479 O   0  0  0  0  0  0  0  0  0  0  0  0
   -4.7585    6.0553   -1.6545 N   0  0  0  0  0  0  0  0  0  0  0  0
   -6.1563    5.8474   -1.6832 N   0  0  0  0  0  0  0  0  0  0  0  0
   -6.6005    5.1304   -2.8250 C   0  0  0  0  0  0  0  0  0  0  0  0
   -7.9411    4.7495   -2.9163 C   0  0  0  0  0  0  0  0  0  0  0  0
   -8.4804    4.0915   -3.9776 N   0  0  0  0  0  0  0  0  0  0  0  0
   -7.6210    3.8490   -4.9860 C   0  0  0  0  0  0  0  0  0  0  0  0
   -6.2928    4.2403   -4.9296 C   0  0  0  0  0  0  0  0  0  0  0  0
   -5.7581    4.8916   -3.8633 N   0  0  0  0  0  0  0  0  0  0  0  0
    1.4699   -2.3665   -0.4586 H   0  0  0  0  0  0  0  0  0  0  0  0
   -1.9129   -0.1834    1.0918 H   0  0  0  0  0  0  0  0  0  0  0  0
    1.3677    1.9276   -0.7430 H   0  0  0  0  0  0  0  0  0  0  0  0
   -3.2581    4.2090    1.6841 H   0  0  0  0  0  0  0  0  0  0  0  0
   -0.6478    6.0193   -0.4753 H   0  0  0  0  0  0  0  0  0  0  0  0
   -2.4971    7.3865   -1.0056 H   0  0  0  0  0  0  0  0  0  0  0  0
   -4.3143    6.1838   -2.5613 H   0  0  0  0  0  0  0  0  0  0  0  0
   -6.4797    5.4029   -0.8203 H   0  0  0  0  0  0  0  0  0  0  0  0
   -8.6477    4.9682   -2.1079 H   0  0  0  0  0  0  0  0  0  0  0  0
   -8.0307    3.3331   -5.8479 H   0  0  0  0  0  0  0  0  0  0  0  0
   -5.6169    4.0383   -5.7543 H   0  0  0  0  0  0  0  0  0  0  0  0
  1  2  2  0  0  0  0
  1 12  1  0  0  0  0
  2  3  1  0  0  0  0
  2 32  1  0  0  0  0
  3  4  2  0  0  0  0
  3 16  1  0  0  0  0
  4  5  1  0  0  0  0
  4 33  1  0  0  0  0
  5  6  2  0  0  0  0
  5  7  1  0  0  0  0
  6  1  1  0  0  0  0
  6 34  1  0  0  0  0
  7  8  1  0  0  0  0
  8  9  2  0  0  0  0
  9 10  1  0  0  0  0
  9 35  1  0  0  0  0
 10 11  1  0  0  0  0
 10 20  1  0  0  0  0
 11  7  2  0  0  0  0
 12 13  1  0  0  0  0
 12 14  1  0  0  0  0
 12 15  1  0  0  0  0
 16 17  1  0  0  0  0
 16 18  1  0  0  0  0
 16 19  1  0  0  0  0
 20 21  2  0  0  0  0
 20 36  1  0  0  0  0
 21 22  1  0  0  0  0
 21 37  1  0  0  0  0
 22 23  2  0  0  0  0
 22 24  1  0  0  0  0
 24 25  1  0  0  0  0
 24 38  1  0  0  0  0
 25 26  1  0  0  0  0
 25 39  1  0  0  0  0
 26 27  2  0  0  0  0
 27 28  1  0  0  0  0
 27 40  1  0  0  0  0
 28 29  2  0  0  0  0
 29 30  1  0  0  0  0
 29 41  1  0  0  0  0
 30 31  2  0  0  0  0
 30 42  1  0  0  0  0
 31 26  1  0  0  0  0
M  END
>  <Mol_ID>
2340

>  <Formula>
C17H11F6N7O

>  <MolWeight>
443.3059592

>  <Cat>
S7252

>  <Name>
Selinexor (KPT-330)

>  <Synonyms>
ATG-010

>  <Target>
CRM1

>  <Form>
free base

>  <CAS>
1393477-72-9

>  <URL>
http://selleckchem.com/products/kpt-330.html

$$$$
