KR-33494
 OpenBabel08302521353D

 46 48  0  0  0  0  0  0  0  0999 V2000
    1.0031    0.0556    0.2934 N   0  0  0  0  0  0  0  0  0  0  0  0
    1.7406    0.9317   -0.4815 C   0  0  0  0  0  0  0  0  0  0  0  0
    2.3774    2.0807    0.3069 C   0  0  0  0  0  0  0  0  0  0  0  0
    1.9148    0.8153   -1.6928 O   0  0  0  0  0  0  0  0  0  0  0  0
    2.7748    1.5810    2.0348 S   0  0  0  0  0  0  0  0  0  0  0  0
   -1.0910   -0.4153   -2.2417 C   0  0  0  0  0  0  0  0  0  0  0  0
   -1.8917   -1.0668   -3.1384 O   0  0  0  0  0  0  0  0  0  0  0  0
   -1.0362    0.8113   -2.1938 O   0  0  0  0  0  0  0  0  0  0  0  0
   -0.3278   -4.6205   -0.0152 C   0  0  0  0  0  0  0  0  0  0  0  0
   -0.1811   -4.9563    1.4733 C   0  0  0  0  0  0  0  0  0  0  0  0
    5.5337    6.6976    4.8970 Br  0  0  0  0  0  0  0  0  0  0  0  0
    0.4299   -1.0917   -0.2180 C   0  0  0  0  0  0  0  0  0  0  0  0
   -0.4353   -1.3453   -1.3172 C   0  0  0  0  0  0  0  0  0  0  0  0
    0.6028   -2.3092    0.3904 C   0  0  0  0  0  0  0  0  0  0  0  0
   -0.7544   -2.6660   -1.3871 N   0  0  0  0  0  0  0  0  0  0  0  0
   -0.1342   -3.2101   -0.3181 N   0  0  0  0  0  0  0  0  0  0  0  0
   -0.4864   -6.3999    1.7757 C   0  0  0  0  0  0  0  0  0  0  0  0
    0.5342   -7.3601    1.7576 C   0  0  0  0  0  0  0  0  0  0  0  0
   -1.7962   -6.8011    2.0689 C   0  0  0  0  0  0  0  0  0  0  0  0
    0.2475   -8.6990    2.0251 C   0  0  0  0  0  0  0  0  0  0  0  0
   -2.0800   -8.1410    2.3346 C   0  0  0  0  0  0  0  0  0  0  0  0
   -1.0595   -9.0896    2.3095 C   0  0  0  0  0  0  0  0  0  0  0  0
    3.4922    3.0575    2.7417 C   0  0  0  0  0  0  0  0  0  0  0  0
    3.2958    3.2816    4.1132 C   0  0  0  0  0  0  0  0  0  0  0  0
    4.3049    3.9417    2.0254 C   0  0  0  0  0  0  0  0  0  0  0  0
    3.8927    4.3708    4.7554 C   0  0  0  0  0  0  0  0  0  0  0  0
    4.9035    5.0342    2.6676 C   0  0  0  0  0  0  0  0  0  0  0  0
    4.6974    5.2419    4.0289 C   0  0  0  0  0  0  0  0  0  0  0  0
    1.3040    0.0171    1.2619 H   0  0  0  0  0  0  0  0  0  0  0  0
    3.3045    2.3513   -0.2054 H   0  0  0  0  0  0  0  0  0  0  0  0
    1.6879    2.9292    0.3077 H   0  0  0  0  0  0  0  0  0  0  0  0
   -1.8130   -2.0256   -2.9164 H   0  0  0  0  0  0  0  0  0  0  0  0
   -1.3345   -4.8853   -0.3621 H   0  0  0  0  0  0  0  0  0  0  0  0
    0.3969   -5.1763   -0.6219 H   0  0  0  0  0  0  0  0  0  0  0  0
    0.8385   -4.7392    1.8166 H   0  0  0  0  0  0  0  0  0  0  0  0
   -0.8380   -4.3136    2.0744 H   0  0  0  0  0  0  0  0  0  0  0  0
    1.1993   -2.5927    1.2440 H   0  0  0  0  0  0  0  0  0  0  0  0
    1.5612   -7.0734    1.5419 H   0  0  0  0  0  0  0  0  0  0  0  0
   -2.6045   -6.0734    2.0979 H   0  0  0  0  0  0  0  0  0  0  0  0
    1.0442   -9.4385    2.0124 H   0  0  0  0  0  0  0  0  0  0  0  0
   -3.0984   -8.4456    2.5623 H   0  0  0  0  0  0  0  0  0  0  0  0
   -1.2826  -10.1336    2.5135 H   0  0  0  0  0  0  0  0  0  0  0  0
    2.6829    2.6010    4.7023 H   0  0  0  0  0  0  0  0  0  0  0  0
    4.5181    3.7904    0.9736 H   0  0  0  0  0  0  0  0  0  0  0  0
    3.7323    4.5202    5.8209 H   0  0  0  0  0  0  0  0  0  0  0  0
    5.5411    5.7051    2.0967 H   0  0  0  0  0  0  0  0  0  0  0  0
  1  2  1  0  0  0  0
  1 12  1  0  0  0  0
  1 29  1  0  0  0  0
  2  3  1  0  0  0  0
  2  4  2  0  0  0  0
  3  5  1  0  0  0  0
  3 30  1  0  0  0  0
  3 31  1  0  0  0  0
  5 23  1  0  0  0  0
  6  7  1  0  0  0  0
  6  8  2  0  0  0  0
  6 13  1  0  0  0  0
  7 32  1  0  0  0  0
  9 10  1  0  0  0  0
  9 16  1  0  0  0  0
  9 33  1  0  0  0  0
  9 34  1  0  0  0  0
 10 17  1  0  0  0  0
 10 35  1  0  0  0  0
 10 36  1  0  0  0  0
 11 28  1  0  0  0  0
 12 13  1  0  0  0  0
 12 14  2  0  0  0  0
 13 15  2  0  0  0  0
 14 16  1  0  0  0  0
 14 37  1  0  0  0  0
 15 16  1  0  0  0  0
 17 18  2  0  0  0  0
 17 19  1  0  0  0  0
 18 20  1  0  0  0  0
 18 38  1  0  0  0  0
 19 21  2  0  0  0  0
 19 39  1  0  0  0  0
 20 22  2  0  0  0  0
 20 40  1  0  0  0  0
 21 22  1  0  0  0  0
 21 41  1  0  0  0  0
 22 42  1  0  0  0  0
 23 24  2  0  0  0  0
 23 25  1  0  0  0  0
 24 26  1  0  0  0  0
 24 43  1  0  0  0  0
 25 27  2  0  0  0  0
 25 44  1  0  0  0  0
 26 28  2  0  0  0  0
 26 45  1  0  0  0  0
 27 28  1  0  0  0  0
 27 46  1  0  0  0  0
M  END
>  <Mol_ID>
6843

>  <Formula>
C20H18BrN3O3S

>  <MolWeight>
460.34422

>  <Cat>
E2361

>  <Name>
KR-33494

>  <Target>
Others

>  <Form>
Free base

>  <CAS>
1021497-97-1

>  <URL>
http://www.selleckchem.com/products/kr-33494.html

$$$$
