Kresoxim-Methyl
 OpenBabel08302521363D

 42 43  0  0  0  0  0  0  0  0999 V2000
    2.5768    0.1203    0.2284 C   0  0  0  0  0  0  0  0  0  0  0  0
    3.2060   -1.1488   -0.3934 C   0  0  0  0  0  0  0  0  0  0  0  0
    3.4692    1.0086    0.5663 N   0  0  0  0  0  0  0  0  0  0  0  0
    4.3789   -1.4147    0.2286 O   0  0  0  0  0  0  0  0  0  0  0  0
    2.6830   -1.7987   -1.2803 O   0  0  0  0  0  0  0  0  0  0  0  0
    3.0080    2.0745    1.3317 O   0  0  0  0  0  0  0  0  0  0  0  0
    5.0931   -2.5519   -0.2538 C   0  0  0  0  0  0  0  0  0  0  0  0
    4.0106    3.0944    1.3021 C   0  0  0  0  0  0  0  0  0  0  0  0
    0.7001    2.5904   -0.4151 C   0  0  0  0  0  0  0  0  0  0  0  0
   -0.0371    3.7527    0.0186 O   0  0  0  0  0  0  0  0  0  0  0  0
   -2.1217    5.1135    1.4104 C   0  0  0  0  0  0  0  0  0  0  0  0
    1.0766    0.1479    0.3937 C   0  0  0  0  0  0  0  0  0  0  0  0
    0.2441    1.2838    0.2232 C   0  0  0  0  0  0  0  0  0  0  0  0
    0.4587   -1.0982    0.6607 C   0  0  0  0  0  0  0  0  0  0  0  0
   -1.1503    1.1240    0.4269 C   0  0  0  0  0  0  0  0  0  0  0  0
   -0.9287   -1.2333    0.7663 C   0  0  0  0  0  0  0  0  0  0  0  0
   -1.7330   -0.1136    0.6795 C   0  0  0  0  0  0  0  0  0  0  0  0
   -1.1059    4.1633   -0.7371 C   0  0  0  0  0  0  0  0  0  0  0  0
   -2.1654    4.7965   -0.0611 C   0  0  0  0  0  0  0  0  0  0  0  0
   -1.2023    3.9481   -2.1178 C   0  0  0  0  0  0  0  0  0  0  0  0
   -3.3509    5.0846   -0.7614 C   0  0  0  0  0  0  0  0  0  0  0  0
   -2.3828    4.2418   -2.7970 C   0  0  0  0  0  0  0  0  0  0  0  0
   -3.4650    4.7911   -2.1190 C   0  0  0  0  0  0  0  0  0  0  0  0
    4.5195   -3.4635   -0.0725 H   0  0  0  0  0  0  0  0  0  0  0  0
    5.3237   -2.4415   -1.3207 H   0  0  0  0  0  0  0  0  0  0  0  0
    6.0334   -2.6175    0.2936 H   0  0  0  0  0  0  0  0  0  0  0  0
    4.5098    3.1347    2.2738 H   0  0  0  0  0  0  0  0  0  0  0  0
    4.7563    2.9238    0.5187 H   0  0  0  0  0  0  0  0  0  0  0  0
    3.5260    4.0538    1.1016 H   0  0  0  0  0  0  0  0  0  0  0  0
    1.7319    2.8335   -0.2076 H   0  0  0  0  0  0  0  0  0  0  0  0
    0.6863    2.4371   -1.4957 H   0  0  0  0  0  0  0  0  0  0  0  0
   -2.5586    6.1024    1.5928 H   0  0  0  0  0  0  0  0  0  0  0  0
   -2.6926    4.3697    1.9758 H   0  0  0  0  0  0  0  0  0  0  0  0
   -1.1001    5.1439    1.7988 H   0  0  0  0  0  0  0  0  0  0  0  0
    1.0436   -2.0109    0.7549 H   0  0  0  0  0  0  0  0  0  0  0  0
   -1.8284    1.9673    0.3320 H   0  0  0  0  0  0  0  0  0  0  0  0
   -1.3783   -2.2132    0.9059 H   0  0  0  0  0  0  0  0  0  0  0  0
   -2.8138   -0.1956    0.7654 H   0  0  0  0  0  0  0  0  0  0  0  0
   -0.3786    3.5457   -2.6956 H   0  0  0  0  0  0  0  0  0  0  0  0
   -4.1966    5.5277   -0.2429 H   0  0  0  0  0  0  0  0  0  0  0  0
   -2.4593    4.0294   -3.8598 H   0  0  0  0  0  0  0  0  0  0  0  0
   -4.3919    5.0006   -2.6461 H   0  0  0  0  0  0  0  0  0  0  0  0
  1  2  1  0  0  0  0
  1  3  2  0  0  0  0
  1 12  1  0  0  0  0
  2  4  1  0  0  0  0
  2  5  2  0  0  0  0
  3  6  1  0  0  0  0
  4  7  1  0  0  0  0
  6  8  1  0  0  0  0
  7 24  1  0  0  0  0
  7 25  1  0  0  0  0
  7 26  1  0  0  0  0
  8 27  1  0  0  0  0
  8 28  1  0  0  0  0
  8 29  1  0  0  0  0
  9 10  1  0  0  0  0
  9 13  1  0  0  0  0
  9 30  1  0  0  0  0
  9 31  1  0  0  0  0
 10 18  1  0  0  0  0
 11 19  1  0  0  0  0
 11 32  1  0  0  0  0
 11 33  1  0  0  0  0
 11 34  1  0  0  0  0
 12 13  2  0  0  0  0
 12 14  1  0  0  0  0
 13 15  1  0  0  0  0
 14 16  2  0  0  0  0
 14 35  1  0  0  0  0
 15 17  2  0  0  0  0
 15 36  1  0  0  0  0
 16 17  1  0  0  0  0
 16 37  1  0  0  0  0
 17 38  1  0  0  0  0
 18 19  2  0  0  0  0
 18 20  1  0  0  0  0
 19 21  1  0  0  0  0
 20 22  2  0  0  0  0
 20 39  1  0  0  0  0
 21 23  2  0  0  0  0
 21 40  1  0  0  0  0
 22 23  1  0  0  0  0
 22 41  1  0  0  0  0
 23 42  1  0  0  0  0
M  END
>  <Mol_ID>
7331

>  <Formula>
C18H19NO4

>  <MolWeight>
313.34776

>  <Cat>
E4376

>  <Name>
Kresoxim-Methyl

>  <Synonyms>
Kresoxim-Methyl

>  <Target>
Others

>  <Form>
free base

>  <CAS>
143390-89-0

>  <URL>
https://www.selleckchem.com/products/kresoxim-methyl.html

$$$$
