KRN633.cdx
 OpenBabel08302520143D

 50 52  0  0  0  0  0  0  0  0999 V2000
    2.5358    0.2700    0.2527 C   0  0  0  0  0  0  0  0  0  0  0  0
    2.3956   -1.0445   -0.1827 C   0  0  0  0  0  0  0  0  0  0  0  0
    1.1079   -1.5036   -0.5075 C   0  0  0  0  0  0  0  0  0  0  0  0
   -0.0278   -0.7109   -0.4791 C   0  0  0  0  0  0  0  0  0  0  0  0
    0.1024    0.6411   -0.1561 C   0  0  0  0  0  0  0  0  0  0  0  0
    1.3905    1.0869    0.2964 C   0  0  0  0  0  0  0  0  0  0  0  0
   -1.1943   -1.3008   -0.7618 N   0  0  0  0  0  0  0  0  0  0  0  0
   -2.2813   -0.5299   -0.7591 C   0  0  0  0  0  0  0  0  0  0  0  0
   -2.2913    0.7888   -0.5843 N   0  0  0  0  0  0  0  0  0  0  0  0
   -1.0996    1.3727   -0.3248 C   0  0  0  0  0  0  0  0  0  0  0  0
    3.6593    0.7722    0.8514 O   0  0  0  0  0  0  0  0  0  0  0  0
    4.6526    1.2770   -0.0438 C   0  0  0  0  0  0  0  0  0  0  0  0
    3.3056   -2.0545   -0.2885 O   0  0  0  0  0  0  0  0  0  0  0  0
    4.6908   -1.7920   -0.2212 C   0  0  0  0  0  0  0  0  0  0  0  0
   -1.2534    2.7357   -0.2049 O   0  0  0  0  0  0  0  0  0  0  0  0
   -0.2740    3.6257   -0.5641 C   0  0  0  0  0  0  0  0  0  0  0  0
    0.7201    3.4166   -1.5103 C   0  0  0  0  0  0  0  0  0  0  0  0
    1.8238    4.2769   -1.5626 C   0  0  0  0  0  0  0  0  0  0  0  0
    1.8775    5.4126   -0.7461 C   0  0  0  0  0  0  0  0  0  0  0  0
    0.7569    5.7380    0.0214 C   0  0  0  0  0  0  0  0  0  0  0  0
   -0.3060    4.8393    0.1287 C   0  0  0  0  0  0  0  0  0  0  0  0
    3.0249    6.2227   -0.6005 N   0  0  0  0  0  0  0  0  0  0  0  0
    4.3230    5.8674   -0.9199 C   0  0  0  0  0  0  0  0  0  0  0  0
    4.6730    4.8460   -1.4932 O   0  0  0  0  0  0  0  0  0  0  0  0
    5.2291    6.8122   -0.4720 N   0  0  0  0  0  0  0  0  0  0  0  0
    6.6599    6.5445   -0.4931 C   0  0  0  0  0  0  0  0  0  0  0  0
    7.3123    6.6007   -1.8749 C   0  0  0  0  0  0  0  0  0  0  0  0
    7.1316    7.9379   -2.5756 C   0  0  0  0  0  0  0  0  0  0  0  0
    0.9905   -2.5510   -0.7856 H   0  0  0  0  0  0  0  0  0  0  0  0
    1.4952    2.0891    0.7080 H   0  0  0  0  0  0  0  0  0  0  0  0
   -3.2357   -1.0209   -0.9190 H   0  0  0  0  0  0  0  0  0  0  0  0
    5.5819    0.7295    0.1514 H   0  0  0  0  0  0  0  0  0  0  0  0
    4.3947    1.1823   -1.1036 H   0  0  0  0  0  0  0  0  0  0  0  0
    4.8613    2.3243    0.1924 H   0  0  0  0  0  0  0  0  0  0  0  0
    5.0140   -1.1515   -1.0470 H   0  0  0  0  0  0  0  0  0  0  0  0
    4.9757   -1.4020    0.7576 H   0  0  0  0  0  0  0  0  0  0  0  0
    5.2100   -2.7476   -0.3469 H   0  0  0  0  0  0  0  0  0  0  0  0
    0.7177    2.5376   -2.1555 H   0  0  0  0  0  0  0  0  0  0  0  0
    2.6397    4.0273   -2.2318 H   0  0  0  0  0  0  0  0  0  0  0  0
    0.7224    6.6519    0.6100 H   0  0  0  0  0  0  0  0  0  0  0  0
   -1.1390    5.0597    0.7916 H   0  0  0  0  0  0  0  0  0  0  0  0
    2.9213    7.0413   -0.0217 H   0  0  0  0  0  0  0  0  0  0  0  0
    4.9159    7.3905    0.2926 H   0  0  0  0  0  0  0  0  0  0  0  0
    7.1309    7.2817    0.1663 H   0  0  0  0  0  0  0  0  0  0  0  0
    6.8282    5.5549   -0.0518 H   0  0  0  0  0  0  0  0  0  0  0  0
    8.3872    6.4130   -1.7555 H   0  0  0  0  0  0  0  0  0  0  0  0
    6.9246    5.8034   -2.5173 H   0  0  0  0  0  0  0  0  0  0  0  0
    7.4980    8.7626   -1.9564 H   0  0  0  0  0  0  0  0  0  0  0  0
    7.6932    7.9466   -3.5158 H   0  0  0  0  0  0  0  0  0  0  0  0
    6.0795    8.1212   -2.8132 H   0  0  0  0  0  0  0  0  0  0  0  0
  1  2  2  0  0  0  0
  1 11  1  0  0  0  0
  2  3  1  0  0  0  0
  2 13  1  0  0  0  0
  3  4  2  0  0  0  0
  3 29  1  0  0  0  0
  4  5  1  0  0  0  0
  4  7  1  0  0  0  0
  5  6  2  0  0  0  0
  6  1  1  0  0  0  0
  6 30  1  0  0  0  0
  7  8  2  0  0  0  0
  8  9  1  0  0  0  0
  8 31  1  0  0  0  0
  9 10  2  0  0  0  0
 10  5  1  0  0  0  0
 10 15  1  0  0  0  0
 11 12  1  0  0  0  0
 12 32  1  0  0  0  0
 12 33  1  0  0  0  0
 12 34  1  0  0  0  0
 13 14  1  0  0  0  0
 14 35  1  0  0  0  0
 14 36  1  0  0  0  0
 14 37  1  0  0  0  0
 15 16  1  0  0  0  0
 16 17  2  0  0  0  0
 17 18  1  0  0  0  0
 17 38  1  0  0  0  0
 18 19  2  0  0  0  0
 18 39  1  0  0  0  0
 19 20  1  0  0  0  0
 19 22  1  0  0  0  0
 20 21  2  0  0  0  0
 20 40  1  0  0  0  0
 21 16  1  0  0  0  0
 21 41  1  0  0  0  0
 22 23  1  0  0  0  0
 22 42  1  0  0  0  0
 23 24  2  0  0  0  0
 23 25  1  0  0  0  0
 25 26  1  0  0  0  0
 25 43  1  0  0  0  0
 26 27  1  0  0  0  0
 26 44  1  0  0  0  0
 26 45  1  0  0  0  0
 27 28  1  0  0  0  0
 27 46  1  0  0  0  0
 27 47  1  0  0  0  0
 28 48  1  0  0  0  0
 28 49  1  0  0  0  0
 28 50  1  0  0  0  0
M  END
>  <Mol_ID>
324

>  <Formula>
C20H21ClN4O4

>  <MolWeight>
416.85814

>  <Cat>
S1557

>  <Name>
KRN 633

>  <Synonyms>
N/A

>  <Target>
VEGFR

>  <Form>
free base

>  <CAS>
286370-15-8

>  <URL>
http://selleckchem.com/products/KRN-633.html

$$$$
