KU-0063794.cdx
 OpenBabel08302522013D

 65 69  0  0  0  0  0  0  0  0999 V2000
    2.3462    0.7711    0.0431 N   0  0  0  0  0  0  0  0  0  0  0  0
    2.3464   -0.5585   -0.1210 C   0  0  0  0  0  0  0  0  0  0  0  0
    1.2168   -1.2653   -0.2067 N   0  0  0  0  0  0  0  0  0  0  0  0
    0.0441   -0.6408   -0.1644 C   0  0  0  0  0  0  0  0  0  0  0  0
   -0.0364    0.7366   -0.0594 C   0  0  0  0  0  0  0  0  0  0  0  0
    1.1741    1.4303    0.0703 C   0  0  0  0  0  0  0  0  0  0  0  0
   -1.0617   -1.4013   -0.1912 N   0  0  0  0  0  0  0  0  0  0  0  0
   -2.2957   -0.8323   -0.1584 C   0  0  0  0  0  0  0  0  0  0  0  0
   -2.4636    0.5371   -0.0987 C   0  0  0  0  0  0  0  0  0  0  0  0
   -1.3299    1.3219   -0.0204 C   0  0  0  0  0  0  0  0  0  0  0  0
    3.5472   -1.2147   -0.1920 N   0  0  0  0  0  0  0  0  0  0  0  0
    3.6375   -2.6685   -0.3096 C   0  0  0  0  0  0  0  0  0  0  0  0
    4.4740   -3.2367    0.8611 C   0  0  2  0  0  0  0  0  0  0  0  0
    5.7532   -2.5792    0.9754 O   0  0  0  0  0  0  0  0  0  0  0  0
    5.6082   -1.1536    1.1375 C   0  0  2  0  0  0  0  0  0  0  0  0
    4.8282   -0.5283   -0.0406 C   0  0  0  0  0  0  0  0  0  0  0  0
    4.7527   -4.7231    0.6575 C   0  0  0  0  0  0  0  0  0  0  0  0
    7.0122   -0.5667    1.2367 C   0  0  0  0  0  0  0  0  0  0  0  0
    1.1884    2.7830    0.3957 N   0  0  0  0  0  0  0  0  0  0  0  0
    2.3650    3.2952    1.1149 C   0  0  0  0  0  0  0  0  0  0  0  0
    1.9324    4.5598    1.8869 C   0  0  0  0  0  0  0  0  0  0  0  0
    1.3059    5.5423    1.0367 O   0  0  0  0  0  0  0  0  0  0  0  0
    0.1914    4.9734    0.3240 C   0  0  0  0  0  0  0  0  0  0  0  0
    0.6599    3.7874   -0.5399 C   0  0  0  0  0  0  0  0  0  0  0  0
   -3.4514   -1.7457   -0.1593 C   0  0  0  0  0  0  0  0  0  0  0  0
   -3.4321   -2.9397    0.5805 C   0  0  0  0  0  0  0  0  0  0  0  0
   -4.5063   -3.8660    0.5757 C   0  0  0  0  0  0  0  0  0  0  0  0
   -5.6361   -3.5709   -0.1988 C   0  0  0  0  0  0  0  0  0  0  0  0
   -5.6783   -2.3631   -0.9084 C   0  0  0  0  0  0  0  0  0  0  0  0
   -4.6128   -1.4621   -0.8848 C   0  0  0  0  0  0  0  0  0  0  0  0
   -4.3226   -5.0977    1.4175 C   0  0  0  0  0  0  0  0  0  0  0  0
   -4.9742   -4.9438    2.6739 O   0  0  0  0  0  0  0  0  0  0  0  0
   -6.7204   -4.3533   -0.4766 O   0  0  0  0  0  0  0  0  0  0  0  0
   -7.2441   -5.2128    0.5204 C   0  0  0  0  0  0  0  0  0  0  0  0
   -3.4464    0.9950   -0.0711 H   0  0  0  0  0  0  0  0  0  0  0  0
   -1.4675    2.3900    0.0946 H   0  0  0  0  0  0  0  0  0  0  0  0
    2.6625   -3.1675   -0.3312 H   0  0  0  0  0  0  0  0  0  0  0  0
    4.1356   -2.8962   -1.2605 H   0  0  0  0  0  0  0  0  0  0  0  0
    3.9318   -3.0987    1.8052 H   0  0  0  0  0  0  0  0  0  0  0  0
    5.0731   -0.9652    2.0770 H   0  0  0  0  0  0  0  0  0  0  0  0
    5.3938   -0.6653   -0.9705 H   0  0  0  0  0  0  0  0  0  0  0  0
    4.7282    0.5509    0.1184 H   0  0  0  0  0  0  0  0  0  0  0  0
    3.8655   -5.2613    0.3109 H   0  0  0  0  0  0  0  0  0  0  0  0
    5.5658   -4.8787   -0.0604 H   0  0  0  0  0  0  0  0  0  0  0  0
    5.0789   -5.1768    1.5999 H   0  0  0  0  0  0  0  0  0  0  0  0
    7.0195    0.5122    1.0557 H   0  0  0  0  0  0  0  0  0  0  0  0
    7.4203   -0.7428    2.2386 H   0  0  0  0  0  0  0  0  0  0  0  0
    7.6977   -1.0509    0.5322 H   0  0  0  0  0  0  0  0  0  0  0  0
    2.7575    2.5667    1.8335 H   0  0  0  0  0  0  0  0  0  0  0  0
    3.1574    3.5456    0.3983 H   0  0  0  0  0  0  0  0  0  0  0  0
    1.2310    4.2978    2.6883 H   0  0  0  0  0  0  0  0  0  0  0  0
    2.8060    5.0311    2.3481 H   0  0  0  0  0  0  0  0  0  0  0  0
   -0.5696    4.6588    1.0497 H   0  0  0  0  0  0  0  0  0  0  0  0
   -0.2459    5.7580   -0.3010 H   0  0  0  0  0  0  0  0  0  0  0  0
    1.4576    4.1162   -1.2173 H   0  0  0  0  0  0  0  0  0  0  0  0
   -0.1602    3.4273   -1.1663 H   0  0  0  0  0  0  0  0  0  0  0  0
   -2.5394   -3.1630    1.1681 H   0  0  0  0  0  0  0  0  0  0  0  0
   -6.5552   -2.1266   -1.5078 H   0  0  0  0  0  0  0  0  0  0  0  0
   -4.6946   -0.5520   -1.4746 H   0  0  0  0  0  0  0  0  0  0  0  0
   -4.6755   -5.9998    0.9175 H   0  0  0  0  0  0  0  0  0  0  0  0
   -3.2611   -5.2750    1.6225 H   0  0  0  0  0  0  0  0  0  0  0  0
   -5.0012   -3.9901    2.8715 H   0  0  0  0  0  0  0  0  0  0  0  0
   -6.6879   -6.1504    0.5624 H   0  0  0  0  0  0  0  0  0  0  0  0
   -7.3066   -4.7239    1.4953 H   0  0  0  0  0  0  0  0  0  0  0  0
   -8.2628   -5.4765    0.2162 H   0  0  0  0  0  0  0  0  0  0  0  0
  1  2  2  0  0  0  0
  2  3  1  0  0  0  0
  2 11  1  0  0  0  0
  3  4  2  0  0  0  0
  4  5  1  0  0  0  0
  4  7  1  0  0  0  0
  5  6  2  0  0  0  0
  6  1  1  0  0  0  0
  6 19  1  0  0  0  0
  7  8  2  0  0  0  0
  8  9  1  0  0  0  0
  8 25  1  0  0  0  0
  9 10  2  0  0  0  0
  9 35  1  0  0  0  0
 10  5  1  0  0  0  0
 10 36  1  0  0  0  0
 11 12  1  0  0  0  0
 12 13  1  0  0  0  0
 12 37  1  0  0  0  0
 12 38  1  0  0  0  0
 13 14  1  0  0  0  0
 13 39  1  1  0  0  0
 13 17  1  0  0  0  0
 14 15  1  0  0  0  0
 15 16  1  0  0  0  0
 15 40  1  1  0  0  0
 15 18  1  0  0  0  0
 16 11  1  0  0  0  0
 16 41  1  0  0  0  0
 16 42  1  0  0  0  0
 17 43  1  0  0  0  0
 17 44  1  0  0  0  0
 17 45  1  0  0  0  0
 18 46  1  0  0  0  0
 18 47  1  0  0  0  0
 18 48  1  0  0  0  0
 19 20  1  0  0  0  0
 20 21  1  0  0  0  0
 20 49  1  0  0  0  0
 20 50  1  0  0  0  0
 21 22  1  0  0  0  0
 21 51  1  0  0  0  0
 21 52  1  0  0  0  0
 22 23  1  0  0  0  0
 23 24  1  0  0  0  0
 23 53  1  0  0  0  0
 23 54  1  0  0  0  0
 24 19  1  0  0  0  0
 24 55  1  0  0  0  0
 24 56  1  0  0  0  0
 25 26  2  0  0  0  0
 26 27  1  0  0  0  0
 26 57  1  0  0  0  0
 27 28  2  0  0  0  0
 27 31  1  0  0  0  0
 28 29  1  0  0  0  0
 28 33  1  0  0  0  0
 29 30  2  0  0  0  0
 29 58  1  0  0  0  0
 30 25  1  0  0  0  0
 30 59  1  0  0  0  0
 31 32  1  0  0  0  0
 31 60  1  0  0  0  0
 31 61  1  0  0  0  0
 32 62  1  0  0  0  0
 33 34  1  0  0  0  0
 34 63  1  0  0  0  0
 34 64  1  0  0  0  0
 34 65  1  0  0  0  0
M  END
>  <Mol_ID>
129

>  <Formula>
C25H31N5O4

>  <MolWeight>
465.54474

>  <Cat>
S1226

>  <Name>
KU-0063794

>  <Synonyms>
N/A

>  <Target>
mTOR

>  <Form>
free base

>  <CAS>
938440-64-3

>  <URL>
http://selleckchem.com/products/KU-0063794.html

$$$$
