KX1-004
 OpenBabel08302520403D

 34 36  0  0  0  0  0  0  0  0999 V2000
   -2.2445   -0.7245   -0.0654 N   0  0  0  0  0  0  0  0  0  0  0  0
   -2.7890    0.5441   -0.0108 C   0  0  0  0  0  0  0  0  0  0  0  0
   -1.7164    1.4207    0.0186 C   0  0  0  0  0  0  0  0  0  0  0  0
   -0.5096    0.6647    0.0047 C   0  0  0  0  0  0  0  0  0  0  0  0
    0.8564    1.0025    0.0373 C   0  0  0  0  0  0  0  0  0  0  0  0
    1.8005   -0.0229    0.0074 C   0  0  0  0  0  0  0  0  0  0  0  0
    1.4263   -1.3589   -0.0574 C   0  0  0  0  0  0  0  0  0  0  0  0
    0.0751   -1.7167   -0.0897 C   0  0  0  0  0  0  0  0  0  0  0  0
   -0.8687   -0.6805   -0.0539 C   0  0  0  0  0  0  0  0  0  0  0  0
   -4.2237    0.7491    0.0033 C   0  0  0  0  0  0  0  0  0  0  0  0
   -5.0107   -0.1900   -0.0443 O   0  0  0  0  0  0  0  0  0  0  0  0
   -4.6331    2.0598    0.0798 N   0  0  0  0  0  0  0  0  0  0  0  0
   -6.0265    2.4518    0.0784 C   0  0  0  0  0  0  0  0  0  0  0  0
   -6.3767    3.2389    1.3171 C   0  0  0  0  0  0  0  0  0  0  0  0
   -6.3069    2.6281    2.5794 C   0  0  0  0  0  0  0  0  0  0  0  0
   -6.6363    3.3513    3.7233 C   0  0  0  0  0  0  0  0  0  0  0  0
   -7.0468    4.6755    3.6376 C   0  0  0  0  0  0  0  0  0  0  0  0
   -7.1294    5.2897    2.3897 C   0  0  0  0  0  0  0  0  0  0  0  0
   -6.7956    4.5763    1.2342 C   0  0  0  0  0  0  0  0  0  0  0  0
   -6.5666    2.7864    4.9624 O   0  0  0  0  0  0  0  0  0  0  0  0
    3.1043    0.2906    0.0432 F   0  0  0  0  0  0  0  0  0  0  0  0
   -2.8019   -1.5689   -0.1017 H   0  0  0  0  0  0  0  0  0  0  0  0
   -1.7723    2.5002    0.0538 H   0  0  0  0  0  0  0  0  0  0  0  0
    1.1826    2.0358    0.0879 H   0  0  0  0  0  0  0  0  0  0  0  0
    2.1979   -2.1247   -0.0808 H   0  0  0  0  0  0  0  0  0  0  0  0
   -0.2221   -2.7596   -0.1391 H   0  0  0  0  0  0  0  0  0  0  0  0
   -3.9450    2.7930    0.1432 H   0  0  0  0  0  0  0  0  0  0  0  0
   -6.1758    3.0639   -0.8184 H   0  0  0  0  0  0  0  0  0  0  0  0
   -6.6878    1.5830   -0.0052 H   0  0  0  0  0  0  0  0  0  0  0  0
   -5.9980    1.5886    2.6511 H   0  0  0  0  0  0  0  0  0  0  0  0
   -7.3033    5.2245    4.5391 H   0  0  0  0  0  0  0  0  0  0  0  0
   -7.4562    6.3243    2.3189 H   0  0  0  0  0  0  0  0  0  0  0  0
   -6.8731    5.0747    0.2700 H   0  0  0  0  0  0  0  0  0  0  0  0
   -6.2479    1.8737    4.8666 H   0  0  0  0  0  0  0  0  0  0  0  0
  1  2  1  0  0  0  0
  1  9  1  0  0  0  0
  1 22  1  0  0  0  0
  2  3  2  0  0  0  0
  2 10  1  0  0  0  0
  3  4  1  0  0  0  0
  3 23  1  0  0  0  0
  4  5  1  0  0  0  0
  4  9  2  0  0  0  0
  5  6  2  0  0  0  0
  5 24  1  0  0  0  0
  6  7  1  0  0  0  0
  6 21  1  0  0  0  0
  7  8  2  0  0  0  0
  7 25  1  0  0  0  0
  8  9  1  0  0  0  0
  8 26  1  0  0  0  0
 10 11  2  0  0  0  0
 10 12  1  0  0  0  0
 12 13  1  0  0  0  0
 12 27  1  0  0  0  0
 13 14  1  0  0  0  0
 13 28  1  0  0  0  0
 13 29  1  0  0  0  0
 14 15  2  0  0  0  0
 14 19  1  0  0  0  0
 15 16  1  0  0  0  0
 15 30  1  0  0  0  0
 16 17  2  0  0  0  0
 16 20  1  0  0  0  0
 17 18  1  0  0  0  0
 17 31  1  0  0  0  0
 18 19  2  0  0  0  0
 18 32  1  0  0  0  0
 19 33  1  0  0  0  0
 20 34  1  0  0  0  0
M  END
>  <Mol_ID>
3803

>  <Formula>
C16H13FN2O2

>  <MolWeight>
284.2850232

>  <Cat>
S6500

>  <Name>
KX1-004

>  <Synonyms>
N/A

>  <Target>
Src

>  <Form>
free base

>  <CAS>
518058-84-9

>  <URL>
http://www.selleck.cn/products/kx1-004.html

$$$$
