KY02111.cdx
 OpenBabel08302519513D

 42 44  0  0  0  0  0  0  0  0999 V2000
    1.4457    0.1407    0.7191 C   0  0  0  0  0  0  0  0  0  0  0  0
    0.5326    0.0519   -0.3461 C   0  0  0  0  0  0  0  0  0  0  0  0
   -0.8297    0.3627   -0.1763 C   0  0  0  0  0  0  0  0  0  0  0  0
   -1.2838    0.7526    1.0984 C   0  0  0  0  0  0  0  0  0  0  0  0
   -0.3875    0.7522    2.1731 C   0  0  0  0  0  0  0  0  0  0  0  0
    0.9581    0.4446    1.9922 C   0  0  0  0  0  0  0  0  0  0  0  0
    3.3004    1.7579   -1.2445 C   0  0  0  0  0  0  0  0  0  0  0  0
    3.5645    0.3391   -0.7546 C   0  0  0  0  0  0  0  0  0  0  0  0
    2.9259   -0.1109    0.5550 C   0  0  0  0  0  0  0  0  0  0  0  0
    3.2520    1.9416   -2.4590 O   0  0  0  0  0  0  0  0  0  0  0  0
    3.2042    2.7273   -0.2720 N   0  0  0  0  0  0  0  0  0  0  0  0
   -2.5415    1.1402    1.4766 O   0  0  0  0  0  0  0  0  0  0  0  0
   -3.4939    1.4476    0.4691 C   0  0  0  0  0  0  0  0  0  0  0  0
   -1.7483    0.2945   -1.1888 O   0  0  0  0  0  0  0  0  0  0  0  0
   -1.3103   -0.0695   -2.4904 C   0  0  0  0  0  0  0  0  0  0  0  0
    2.5352    5.0696    0.6572 S   0  0  0  0  0  0  0  0  0  0  0  0
    3.0133    4.0421   -0.6190 C   0  0  0  0  0  0  0  0  0  0  0  0
    3.1436    4.5964   -1.7917 N   0  0  0  0  0  0  0  0  0  0  0  0
    2.7081    5.9043   -1.7429 C   0  0  0  0  0  0  0  0  0  0  0  0
    2.3028    6.3513   -0.4829 C   0  0  0  0  0  0  0  0  0  0  0  0
    2.6171    6.7803   -2.8429 C   0  0  0  0  0  0  0  0  0  0  0  0
    2.0784    8.0576   -2.6700 C   0  0  0  0  0  0  0  0  0  0  0  0
    1.6648    8.4803   -1.4103 C   0  0  0  0  0  0  0  0  0  0  0  0
    1.7871    7.6450   -0.2923 C   0  0  0  0  0  0  0  0  0  0  0  0
    0.9025   -0.2583   -1.3187 H   0  0  0  0  0  0  0  0  0  0  0  0
   -0.7480    1.0096    3.1668 H   0  0  0  0  0  0  0  0  0  0  0  0
    1.6193    0.4557    2.8559 H   0  0  0  0  0  0  0  0  0  0  0  0
    4.6527    0.2194   -0.6868 H   0  0  0  0  0  0  0  0  0  0  0  0
    3.2277   -0.3330   -1.5544 H   0  0  0  0  0  0  0  0  0  0  0  0
    3.4632    0.3810    1.3765 H   0  0  0  0  0  0  0  0  0  0  0  0
    3.1006   -1.1873    0.6787 H   0  0  0  0  0  0  0  0  0  0  0  0
    3.0619    2.4954    0.6973 H   0  0  0  0  0  0  0  0  0  0  0  0
   -3.0906    2.1224   -0.2906 H   0  0  0  0  0  0  0  0  0  0  0  0
   -3.8965    0.5280    0.0322 H   0  0  0  0  0  0  0  0  0  0  0  0
   -4.3259    1.9707    0.9504 H   0  0  0  0  0  0  0  0  0  0  0  0
   -0.5060    0.5821   -2.8467 H   0  0  0  0  0  0  0  0  0  0  0  0
   -1.0139   -1.1229   -2.5168 H   0  0  0  0  0  0  0  0  0  0  0  0
   -2.1579    0.0566   -3.1713 H   0  0  0  0  0  0  0  0  0  0  0  0
    2.9357    6.4369   -3.8222 H   0  0  0  0  0  0  0  0  0  0  0  0
    1.9723    8.7149   -3.5299 H   0  0  0  0  0  0  0  0  0  0  0  0
    1.2326    9.4729   -1.2945 H   0  0  0  0  0  0  0  0  0  0  0  0
    1.4614    7.9807    0.6869 H   0  0  0  0  0  0  0  0  0  0  0  0
  1  2  2  0  0  0  0
  1  6  1  0  0  0  0
  1  9  1  0  0  0  0
  2  3  1  0  0  0  0
  2 25  1  0  0  0  0
  3  4  2  0  0  0  0
  3 14  1  0  0  0  0
  4  5  1  0  0  0  0
  4 12  1  0  0  0  0
  5  6  2  0  0  0  0
  5 26  1  0  0  0  0
  6 27  1  0  0  0  0
  7  8  1  0  0  0  0
  7 10  2  0  0  0  0
  7 11  1  0  0  0  0
  8  9  1  0  0  0  0
  8 28  1  0  0  0  0
  8 29  1  0  0  0  0
  9 30  1  0  0  0  0
  9 31  1  0  0  0  0
 11 17  1  0  0  0  0
 11 32  1  0  0  0  0
 12 13  1  0  0  0  0
 13 33  1  0  0  0  0
 13 34  1  0  0  0  0
 13 35  1  0  0  0  0
 14 15  1  0  0  0  0
 15 36  1  0  0  0  0
 15 37  1  0  0  0  0
 15 38  1  0  0  0  0
 16 17  1  0  0  0  0
 16 20  1  0  0  0  0
 17 18  2  0  0  0  0
 18 19  1  0  0  0  0
 19 20  2  0  0  0  0
 19 21  1  0  0  0  0
 20 24  1  0  0  0  0
 21 22  2  0  0  0  0
 21 39  1  0  0  0  0
 22 23  1  0  0  0  0
 22 40  1  0  0  0  0
 23 24  2  0  0  0  0
 23 41  1  0  0  0  0
 24 42  1  0  0  0  0
M  END
>  <Mol_ID>
1875

>  <Formula>
C18H17ClN2O3S

>  <MolWeight>
376.85718

>  <Cat>
S7096

>  <Name>
KY02111

>  <Synonyms>
N/A

>  <Target>
Wnt/beta-catenin

>  <Form>
free base

>  <CAS>
1118807-13-8

>  <URL>
http://selleckchem.com/products/ky02111.html

$$$$
