KY1220
 OpenBabel08302521243D

 32 34  0  0  0  0  0  0  0  0999 V2000
   -0.3727    1.2526    0.6105 C   0  0  0  0  0  0  0  0  0  0  0  0
   -1.2041    0.1510    0.8394 C   0  0  0  0  0  0  0  0  0  0  0  0
   -0.8137   -1.1122    0.3906 C   0  0  0  0  0  0  0  0  0  0  0  0
    0.3926   -1.2753   -0.3007 C   0  0  0  0  0  0  0  0  0  0  0  0
    1.2228   -0.1678   -0.5224 C   0  0  0  0  0  0  0  0  0  0  0  0
    0.8587    1.1024   -0.0445 C   0  0  0  0  0  0  0  0  0  0  0  0
   -1.6783   -2.2688    0.6448 N   0  3  0  0  0  0  0  0  0  0  0  0
   -2.7239   -2.0806    1.2823 O   0  5  0  0  0  0  0  0  0  0  0  0
   -1.3110   -3.3694    0.2086 O   0  0  0  0  0  0  0  0  0  0  0  0
    1.7390    2.2211   -0.2321 N   0  0  0  0  0  0  0  0  0  0  0  0
    2.6624    2.3236   -1.2633 C   0  0  0  0  0  0  0  0  0  0  0  0
    3.3022    3.5399   -1.1920 C   0  0  0  0  0  0  0  0  0  0  0  0
    2.8052    4.2034   -0.0551 C   0  0  0  0  0  0  0  0  0  0  0  0
    1.8769    3.3755    0.5495 C   0  0  0  0  0  0  0  0  0  0  0  0
    1.1913    3.5426    1.7802 C   0  0  0  0  0  0  0  0  0  0  0  0
    1.6616    3.0319    2.9208 C   0  0  0  0  0  0  0  0  0  0  0  0
    0.9399    3.0603    4.2309 C   0  0  0  0  0  0  0  0  0  0  0  0
    1.7937    2.4377    5.1029 N   0  0  0  0  0  0  0  0  0  0  0  0
    2.9398    2.0310    4.4695 C   0  0  0  0  0  0  0  0  0  0  0  0
    2.8457    2.3811    3.1363 N   0  0  0  0  0  0  0  0  0  0  0  0
   -0.1699    3.5039    4.4492 O   0  0  0  0  0  0  0  0  0  0  0  0
    4.2162    1.2636    5.1750 S   0  0  0  0  0  0  0  0  0  0  0  0
   -0.7471    2.2221    0.9224 H   0  0  0  0  0  0  0  0  0  0  0  0
   -2.1461    0.3041    1.3625 H   0  0  0  0  0  0  0  0  0  0  0  0
    0.7072   -2.2530   -0.6611 H   0  0  0  0  0  0  0  0  0  0  0  0
    2.1687   -0.3386   -1.0314 H   0  0  0  0  0  0  0  0  0  0  0  0
    2.7540    1.5507   -2.0128 H   0  0  0  0  0  0  0  0  0  0  0  0
    4.0483    3.9042   -1.8870 H   0  0  0  0  0  0  0  0  0  0  0  0
    3.1154    5.1743    0.3121 H   0  0  0  0  0  0  0  0  0  0  0  0
    0.2437    4.0766    1.7773 H   0  0  0  0  0  0  0  0  0  0  0  0
    1.5873    2.2899    6.0775 H   0  0  0  0  0  0  0  0  0  0  0  0
    3.5613    2.2247    2.4385 H   0  0  0  0  0  0  0  0  0  0  0  0
  1  2  2  0  0  0  0
  1 23  1  0  0  0  0
  2  3  1  0  0  0  0
  2 24  1  0  0  0  0
  3  4  2  0  0  0  0
  3  7  1  0  0  0  0
  4  5  1  0  0  0  0
  4 25  1  0  0  0  0
  5  6  2  0  0  0  0
  5 26  1  0  0  0  0
  6  1  1  0  0  0  0
  6 10  1  0  0  0  0
  7  8  1  0  0  0  0
  7  9  2  0  0  0  0
 11 12  2  0  0  0  0
 11 10  1  0  0  0  0
 11 27  1  0  0  0  0
 12 13  1  0  0  0  0
 12 28  1  0  0  0  0
 13 14  2  0  0  0  0
 13 29  1  0  0  0  0
 14 10  1  0  0  0  0
 14 15  1  0  0  0  0
 15 16  2  0  0  0  0
 15 30  1  0  0  0  0
 16 17  1  0  0  0  0
 17 18  1  0  0  0  0
 17 21  2  0  0  0  0
 18 19  1  0  0  0  0
 18 31  1  0  0  0  0
 19 20  1  0  0  0  0
 19 22  2  0  0  0  0
 20 16  1  0  0  0  0
 20 32  1  0  0  0  0
M  CHG  2   7   1   8  -1
M  END
>  <Mol_ID>
5072

>  <Formula>
C14H10N4O3S

>  <MolWeight>
314.3192

>  <Cat>
S0458

>  <Name>
KY1220

>  <Synonyms>
N/A

>  <Target>
Ras,Wnt/beta-catenin

>  <Form>
free base

>  <CAS>
292168-79-7

>  <URL>
http://www.selleckchem.com/products/ky1220.html

$$$$
