KY19382 (A3051)
 OpenBabel08302521453D

 35 38  0  0  0  0  0  0  0  0999 V2000
    1.3610    0.6508   -0.0250 O   0  0  0  0  0  0  0  0  0  0  0  0
    6.4157    3.1960    0.6001 O   0  0  0  0  0  0  0  0  0  0  0  0
    3.0566   -0.9107    0.1312 N   0  0  0  0  0  0  0  0  0  0  0  0
    2.1634    3.1202    0.0614 N   0  0  0  0  0  0  0  0  0  0  0  0
    5.5917    4.2411    0.2373 N   0  0  0  0  0  0  0  0  0  0  0  0
    3.7507    1.3037   -0.0546 C   0  0  0  0  0  0  0  0  0  0  0  0
    4.9237    0.4050   -0.1144 C   0  0  0  0  0  0  0  0  0  0  0  0
    3.4834    2.6278    0.0232 C   0  0  0  0  0  0  0  0  0  0  0  0
    4.4401   -0.9003    0.0701 C   0  0  0  0  0  0  0  0  0  0  0  0
    2.5459    0.3641    0.0165 C   0  0  0  0  0  0  0  0  0  0  0  0
    4.3638    3.9093    0.0565 C   0  0  0  0  0  0  0  0  0  0  0  0
    3.3949    5.0350   -0.0782 C   0  0  0  0  0  0  0  0  0  0  0  0
    2.1163    4.4918   -0.0697 C   0  0  0  0  0  0  0  0  0  0  0  0
    6.2725    0.5490   -0.3631 C   0  0  0  0  0  0  0  0  0  0  0  0
    5.2455   -2.0254    0.1326 C   0  0  0  0  0  0  0  0  0  0  0  0
    3.6196    6.4033   -0.0800 C   0  0  0  0  0  0  0  0  0  0  0  0
    7.1278   -0.5570   -0.2352 C   0  0  0  0  0  0  0  0  0  0  0  0
    6.6188   -1.8359    0.0217 C   0  0  0  0  0  0  0  0  0  0  0  0
    1.0092    5.3160   -0.0473 C   0  0  0  0  0  0  0  0  0  0  0  0
    2.5040    7.2430   -0.0729 C   0  0  0  0  0  0  0  0  0  0  0  0
    1.2068    6.7023   -0.0566 C   0  0  0  0  0  0  0  0  0  0  0  0
    7.7588    3.6739    0.6273 C   0  0  0  0  0  0  0  0  0  0  0  0
    2.4727   -1.7310    0.1900 H   0  0  0  0  0  0  0  0  0  0  0  0
    1.3814    2.4961   -0.1063 H   0  0  0  0  0  0  0  0  0  0  0  0
    6.6929    1.4889   -0.6826 H   0  0  0  0  0  0  0  0  0  0  0  0
    4.8320   -3.0184    0.2679 H   0  0  0  0  0  0  0  0  0  0  0  0
    4.6270    6.8026   -0.0506 H   0  0  0  0  0  0  0  0  0  0  0  0
    8.2007   -0.4184   -0.3523 H   0  0  0  0  0  0  0  0  0  0  0  0
    7.2968   -2.6822    0.1027 H   0  0  0  0  0  0  0  0  0  0  0  0
    0.0058    4.9048    0.0018 H   0  0  0  0  0  0  0  0  0  0  0  0
    2.6386    8.3221   -0.0527 H   0  0  0  0  0  0  0  0  0  0  0  0
    0.3476    7.3695   -0.0263 H   0  0  0  0  0  0  0  0  0  0  0  0
    7.9688    4.3229   -0.2310 H   0  0  0  0  0  0  0  0  0  0  0  0
    7.9367    4.2129    1.5607 H   0  0  0  0  0  0  0  0  0  0  0  0
    8.4327    2.8142    0.5771 H   0  0  0  0  0  0  0  0  0  0  0  0
  1 10  2  0  0  0  0
  2  5  1  0  0  0  0
  2 22  1  0  0  0  0
  3  9  1  0  0  0  0
  3 10  1  0  0  0  0
  3 23  1  0  0  0  0
  4  8  1  0  0  0  0
  4 13  1  0  0  0  0
  4 24  1  0  0  0  0
  5 11  2  0  0  0  0
  6  7  1  0  0  0  0
  6  8  2  0  0  0  0
  6 10  1  0  0  0  0
  7  9  2  0  0  0  0
  7 14  1  0  0  0  0
  8 11  1  0  0  0  0
  9 15  1  0  0  0  0
 11 12  1  0  0  0  0
 12 13  2  0  0  0  0
 12 16  1  0  0  0  0
 13 19  1  0  0  0  0
 14 17  2  0  0  0  0
 14 25  1  0  0  0  0
 15 18  2  0  0  0  0
 15 26  1  0  0  0  0
 16 20  2  0  0  0  0
 16 27  1  0  0  0  0
 17 18  1  0  0  0  0
 17 28  1  0  0  0  0
 18 29  1  0  0  0  0
 19 21  2  0  0  0  0
 19 30  1  0  0  0  0
 20 21  1  0  0  0  0
 20 31  1  0  0  0  0
 21 32  1  0  0  0  0
 22 33  1  0  0  0  0
 22 34  1  0  0  0  0
 22 35  1  0  0  0  0
M  END
>  <Mol_ID>
9393

>  <Formula>
C17H11Cl2N3O2

>  <MolWeight>
360.19414

>  <Cat>
S6085

>  <Name>
KY19382 (A3051)

>  <Synonyms>
N/A

>  <Target>
GSK-3,Wnt/beta-catenin

>  <Form>
Free Base

>  <CAS>
2226664-93-1

>  <URL>
http://www.selleckchem.com/products/ky19382-a3051.html

$$$$
