L-(+)-Arabinose
 OpenBabel08302520393D

 20 19  0  0  0  0  0  0  0  0999 V2000
    3.6347    1.6343   -2.8265 C   0  0  2  0  0  0  0  0  0  0  0  0
    3.1372    2.5144   -3.9843 C   0  0  0  0  0  0  0  0  0  0  0  0
    4.8458    0.9805   -3.2082 O   0  0  0  0  0  0  0  0  0  0  0  0
    2.0044    3.2951   -3.6237 O   0  0  0  0  0  0  0  0  0  0  0  0
    2.5829    0.5781   -2.4244 C   0  0  1  0  0  0  0  0  0  0  0  0
    3.0714   -0.2855   -1.2549 C   0  0  2  0  0  0  0  0  0  0  0  0
    1.3648    1.2460   -2.0469 O   0  0  0  0  0  0  0  0  0  0  0  0
    2.0622   -1.3861   -0.9694 C   0  0  0  0  0  0  0  0  0  0  0  0
    3.2270    0.5501   -0.1012 O   0  0  0  0  0  0  0  0  0  0  0  0
    1.4671   -1.4621    0.1059 O   0  0  0  0  0  0  0  0  0  0  0  0
    3.8385    2.2813   -1.9647 H   0  0  0  0  0  0  0  0  0  0  0  0
    3.9306    3.2008   -4.2960 H   0  0  0  0  0  0  0  0  0  0  0  0
    2.8834    1.9062   -4.8588 H   0  0  0  0  0  0  0  0  0  0  0  0
    5.5509    1.6533   -3.1724 H   0  0  0  0  0  0  0  0  0  0  0  0
    1.3363    2.6770   -3.2637 H   0  0  0  0  0  0  0  0  0  0  0  0
    2.3565   -0.0640   -3.2831 H   0  0  0  0  0  0  0  0  0  0  0  0
    4.0283   -0.7710   -1.4744 H   0  0  0  0  0  0  0  0  0  0  0  0
    1.5489    1.6657   -1.1792 H   0  0  0  0  0  0  0  0  0  0  0  0
    1.9091   -2.1322   -1.7668 H   0  0  0  0  0  0  0  0  0  0  0  0
    2.5786    0.2261    0.5589 H   0  0  0  0  0  0  0  0  0  0  0  0
  1 11  1  1  0  0  0
  1  3  1  0  0  0  0
  1  2  1  0  0  0  0
  2  4  1  0  0  0  0
  2 12  1  0  0  0  0
  2 13  1  0  0  0  0
  3 14  1  0  0  0  0
  4 15  1  0  0  0  0
  5  1  1  0  0  0  0
  5  7  1  0  0  0  0
  5 16  1  6  0  0  0
  6  9  1  0  0  0  0
  6 17  1  6  0  0  0
  6  8  1  0  0  0  0
  6  5  1  0  0  0  0
  7 18  1  0  0  0  0
  8 10  2  0  0  0  0
  8 19  1  0  0  0  0
  9 20  1  0  0  0  0
M  END
>  <Mol_ID>
3674

>  <Formula>
C5H10O5

>  <MolWeight>
150.1299

>  <Cat>
S6346

>  <Name>
L-(+)-Arabinose

>  <Synonyms>
DL-Arabinose, Pectinose

>  <Target>
Others

>  <Form>
free base

>  <CAS>
5328-37-0

>  <URL>
https://www.selleckchem.com/products/l--arabinose.html

$$$$
