L(-)-Pipecolinic acid
 OpenBabel08302521383D

 20 20  0  0  0  0  0  0  0  0999 V2000
    0.7911    1.1868   -0.2600 C   0  0  2  0  0  0  0  0  0  0  0  0
   -0.6563    1.3047    0.2345 C   0  0  0  0  0  0  0  0  0  0  0  0
   -1.4875    0.0901   -0.1821 C   0  0  0  0  0  0  0  0  0  0  0  0
   -0.7941   -1.2128    0.2057 C   0  0  0  0  0  0  0  0  0  0  0  0
    0.6515   -1.2380   -0.2831 C   0  0  0  0  0  0  0  0  0  0  0  0
    1.3810   -0.0816    0.2247 N   0  0  0  0  0  0  0  0  0  0  0  0
    1.6803    2.3534    0.1939 C   0  0  0  0  0  0  0  0  0  0  0  0
    2.8845    2.3018    0.4108 O   0  0  0  0  0  0  0  0  0  0  0  0
    1.0532    3.5455    0.2274 O   0  0  0  0  0  0  0  0  0  0  0  0
    0.8112    1.2042   -1.3574 H   0  0  0  0  0  0  0  0  0  0  0  0
   -1.1266    2.2098   -0.1681 H   0  0  0  0  0  0  0  0  0  0  0  0
   -0.6749    1.4050    1.3277 H   0  0  0  0  0  0  0  0  0  0  0  0
   -2.4801    0.1372    0.2794 H   0  0  0  0  0  0  0  0  0  0  0  0
   -1.6382    0.1095   -1.2685 H   0  0  0  0  0  0  0  0  0  0  0  0
   -0.8147   -1.3251    1.2973 H   0  0  0  0  0  0  0  0  0  0  0  0
   -1.3425   -2.0644   -0.2127 H   0  0  0  0  0  0  0  0  0  0  0  0
    1.1371   -2.1519    0.0751 H   0  0  0  0  0  0  0  0  0  0  0  0
    0.6872   -1.2630   -1.3792 H   0  0  0  0  0  0  0  0  0  0  0  0
    2.3609   -0.1191   -0.0631 H   0  0  0  0  0  0  0  0  0  0  0  0
    1.7680    4.1680    0.4784 H   0  0  0  0  0  0  0  0  0  0  0  0
  1  2  1  0  0  0  0
  1  6  1  0  0  0  0
  1 10  1  6  0  0  0
  1  7  1  0  0  0  0
  2  3  1  0  0  0  0
  2 11  1  0  0  0  0
  2 12  1  0  0  0  0
  3  4  1  0  0  0  0
  3 13  1  0  0  0  0
  3 14  1  0  0  0  0
  4  5  1  0  0  0  0
  4 15  1  0  0  0  0
  4 16  1  0  0  0  0
  5  6  1  0  0  0  0
  5 17  1  0  0  0  0
  5 18  1  0  0  0  0
  6 19  1  0  0  0  0
  7  8  2  0  0  0  0
  7  9  1  0  0  0  0
  9 20  1  0  0  0  0
M  END
>  <Mol_ID>
7921

>  <Formula>
C6H11NO2

>  <MolWeight>
129.15704

>  <Cat>
S6302

>  <Name>
L(-)-Pipecolinic acid

>  <Synonyms>
L-Homoproline

>  <Target>
Others

>  <Form>
free base

>  <CAS>
3105-95-1

>  <URL>
http://www.selleck.cn/products/l-pipecolinic-acid.html

$$$$
