L-Aspartic aicd (sodium)
 OpenBabel08302521453D

 16 15  0  0  0  0  0  0  0  0999 V2000
    1.0201    0.0935    0.0606 C   0  0  1  0  0  0  0  0  0  0  0  0
    0.5787    0.4990   -1.3407 C   0  0  0  0  0  0  0  0  0  0  0  0
    0.3188    0.9756    1.0987 C   0  0  0  0  0  0  0  0  0  0  0  0
    0.6698   -1.3409    0.2973 N   0  0  0  0  0  0  0  0  0  0  0  0
    1.3389   -0.2143   -2.4296 C   0  0  0  0  0  0  0  0  0  0  0  0
    0.9373    2.1513    1.3378 O   0  0  0  0  0  0  0  0  0  0  0  0
   -0.7117    0.6456    1.6711 O   0  0  0  0  0  0  0  0  0  0  0  0
    1.6020   -1.5153   -2.1774 O   0  0  0  0  0  0  0  0  0  0  0  0
    1.6514    0.3216   -3.4825 O   0  0  0  0  0  0  0  0  0  0  0  0
    2.1053    0.1881    0.1835 H   0  0  0  0  0  0  0  0  0  0  0  0
   -0.4925    0.3266   -1.4954 H   0  0  0  0  0  0  0  0  0  0  0  0
    0.7554    1.5742   -1.4750 H   0  0  0  0  0  0  0  0  0  0  0  0
    0.9601   -1.5735    1.2564 H   0  0  0  0  0  0  0  0  0  0  0  0
   -0.3593   -1.3833    0.3795 H   0  0  0  0  0  0  0  0  0  0  0  0
    1.7682    2.3030    0.8470 H   0  0  0  0  0  0  0  0  0  0  0  0
    1.2692   -1.7998   -1.2866 H   0  0  0  0  0  0  0  0  0  0  0  0
  1  4  1  0  0  0  0
  1 10  1  1  0  0  0
  1  3  1  0  0  0  0
  1  2  1  0  0  0  0
  2  5  1  0  0  0  0
  2 11  1  0  0  0  0
  2 12  1  0  0  0  0
  3  6  1  0  0  0  0
  3  7  2  0  0  0  0
  4 13  1  0  0  0  0
  4 14  1  0  0  0  0
  5  8  1  0  0  0  0
  5  9  2  0  0  0  0
  6 15  1  0  0  0  0
  8 16  1  0  0  0  0
M  END
>  <Mol_ID>
9491

>  <Formula>
C4H7NNaO4

>  <MolWeight>
156.09245

>  <Cat>
E4108

>  <Name>
L-Aspartic aicd (sodium)

>  <Synonyms>
Sodium L-aspartate

>  <Target>
Others

>  <Form>
sodium salt?

>  <CAS>
3792-50-5

>  <URL>
https://www.selleckchem.com/products/l-aspartic-aicd-sodium.html

$$$$
