L-Gulono-1,4-lactone
 OpenBabel08302520383D

 22 22  0  0  0  0  0  0  0  0999 V2000
   -0.6777   -1.0923   -0.1868 C   0  0  2  0  0  0  0  0  0  0  0  0
    0.7805   -0.9852    0.2582 C   0  0  1  0  0  0  0  0  0  0  0  0
   -1.2469    0.2188   -0.0422 O   0  0  0  0  0  0  0  0  0  0  0  0
   -1.5761   -2.1114    0.5265 C   0  0  2  0  0  0  0  0  0  0  0  0
    1.1101    0.4793    0.0240 C   0  0  1  0  0  0  0  0  0  0  0  0
    0.9946   -1.2871    1.6334 O   0  0  0  0  0  0  0  0  0  0  0  0
   -0.2529    1.1332    0.1000 C   0  0  0  0  0  0  0  0  0  0  0  0
   -1.7792   -1.8917    2.0331 C   0  0  0  0  0  0  0  0  0  0  0  0
   -1.0996   -3.4405    0.2936 O   0  0  0  0  0  0  0  0  0  0  0  0
    2.0389    0.9442    1.0021 O   0  0  0  0  0  0  0  0  0  0  0  0
   -0.4369    2.3297    0.2836 O   0  0  0  0  0  0  0  0  0  0  0  0
   -2.7496   -2.8445    2.4974 O   0  0  0  0  0  0  0  0  0  0  0  0
   -0.6918   -1.3124   -1.2624 H   0  0  0  0  0  0  0  0  0  0  0  0
    1.4264   -1.6502   -0.3260 H   0  0  0  0  0  0  0  0  0  0  0  0
   -2.5696   -2.0626    0.0640 H   0  0  0  0  0  0  0  0  0  0  0  0
    1.5194    0.6487   -0.9766 H   0  0  0  0  0  0  0  0  0  0  0  0
    1.8386   -0.8481    1.8711 H   0  0  0  0  0  0  0  0  0  0  0  0
   -0.8819   -2.1035    2.6142 H   0  0  0  0  0  0  0  0  0  0  0  0
   -2.1304   -0.8809    2.2679 H   0  0  0  0  0  0  0  0  0  0  0  0
   -1.5365   -3.9901    0.9769 H   0  0  0  0  0  0  0  0  0  0  0  0
    1.6430    1.7475    1.4000 H   0  0  0  0  0  0  0  0  0  0  0  0
   -3.6234   -2.4231    2.4149 H   0  0  0  0  0  0  0  0  0  0  0  0
  1  2  1  0  0  0  0
  1  3  1  0  0  0  0
  1 13  1  6  0  0  0
  1  4  1  0  0  0  0
  2  5  1  0  0  0  0
  2  6  1  0  0  0  0
  2 14  1  6  0  0  0
  3  7  1  0  0  0  0
  4 15  1  6  0  0  0
  4  9  1  0  0  0  0
  4  8  1  0  0  0  0
  5 10  1  0  0  0  0
  5  7  1  0  0  0  0
  5 16  1  6  0  0  0
  6 17  1  0  0  0  0
  7 11  2  0  0  0  0
  8 12  1  0  0  0  0
  8 18  1  0  0  0  0
  8 19  1  0  0  0  0
  9 20  1  0  0  0  0
 10 21  1  0  0  0  0
 12 22  1  0  0  0  0
M  END
>  <Mol_ID>
3475

>  <Formula>
C6H10O6

>  <MolWeight>
178.14

>  <Cat>
S6182

>  <Name>
L-Gulono-1,4-lactone

>  <Synonyms>
L-Gulonolactone, L-Gulono-gamma-lactone, reduced ascorbic acid

>  <Target>
Others

>  <Form>
free base

>  <CAS>
1128-23-0

>  <URL>
http://www.selleck.cn/products/l-gulono-1-4-lactone.html

$$$$
