L-Hyoscyamine sulfate
 OpenBabel08302521553D

 51 52  0  0  0  0  0  0  0  0999 V2000
    2.5585    2.1683   -1.5375 S   0  0  0  0  0  0  0  0  0  0  0  0
    2.7518    3.4866   -2.0798 O   0  0  0  0  0  0  0  0  0  0  0  0
    1.5404    1.2646   -2.0177 O   0  0  0  0  0  0  0  0  0  0  0  0
    2.3086    2.2934    0.0412 O   0  0  0  0  0  0  0  0  0  0  0  0
    3.9430    1.3625   -1.6047 O   0  0  0  0  0  0  0  0  0  0  0  0
    0.2583   -4.0114    3.0730 O   0  0  0  0  0  0  0  0  0  0  0  0
    0.8081   -4.7027    2.0331 C   0  0  0  0  0  0  0  0  0  0  0  0
    1.0525   -3.7987    0.8170 C   0  0  2  0  0  0  0  0  0  0  0  0
    1.0296   -5.9006    2.0600 O   0  0  0  0  0  0  0  0  0  0  0  0
   -0.2533   -3.7954   -0.0027 C   0  0  0  0  0  0  0  0  0  0  0  0
   -1.4177   -3.6112    0.7938 O   0  0  0  0  0  0  0  0  0  0  0  0
   -0.9319   -7.8650    6.9715 C   0  0  0  0  0  0  0  0  0  0  0  0
   -0.2089   -4.6513    4.2960 C   0  0  2  0  0  0  0  0  0  0  0  0
    0.9142   -5.2907    5.1332 C   0  0  0  0  0  0  0  0  0  0  0  0
   -1.5261   -5.4552    4.1654 C   0  0  0  0  0  0  0  0  0  0  0  0
    0.6799   -6.7547    5.5287 C   0  0  1  0  0  0  0  0  0  0  0  0
   -1.4724   -6.8876    4.7448 C   0  0  2  0  0  0  0  0  0  0  0  0
   -0.7133   -6.7998    6.0020 N   0  0  0  0  0  0  0  0  0  0  0  0
    0.7333   -7.7657    4.3810 C   0  0  0  0  0  0  0  0  0  0  0  0
   -0.6826   -7.8144    3.8271 C   0  0  0  0  0  0  0  0  0  0  0  0
    2.2509   -4.1357   -0.0999 C   0  0  0  0  0  0  0  0  0  0  0  0
    2.4007   -3.4576   -1.3357 C   0  0  0  0  0  0  0  0  0  0  0  0
    3.2461   -5.0787    0.2161 C   0  0  0  0  0  0  0  0  0  0  0  0
    3.4616   -3.7292   -2.2127 C   0  0  0  0  0  0  0  0  0  0  0  0
    4.3127   -5.3439   -0.6613 C   0  0  0  0  0  0  0  0  0  0  0  0
    4.4218   -4.6718   -1.8737 C   0  0  0  0  0  0  0  0  0  0  0  0
    1.3849    2.0258    0.2222 H   0  0  0  0  0  0  0  0  0  0  0  0
    3.7461    0.4068   -1.5637 H   0  0  0  0  0  0  0  0  0  0  0  0
    1.2502   -2.7928    1.2113 H   0  0  0  0  0  0  0  0  0  0  0  0
   -0.2492   -2.9669   -0.7183 H   0  0  0  0  0  0  0  0  0  0  0  0
   -0.3622   -4.7293   -0.5665 H   0  0  0  0  0  0  0  0  0  0  0  0
   -2.1823   -3.6301    0.1921 H   0  0  0  0  0  0  0  0  0  0  0  0
   -0.8483   -7.4213    7.9716 H   0  0  0  0  0  0  0  0  0  0  0  0
   -1.9325   -8.3021    6.9069 H   0  0  0  0  0  0  0  0  0  0  0  0
   -0.1959   -8.6753    6.9212 H   0  0  0  0  0  0  0  0  0  0  0  0
   -0.5056   -3.7663    4.8800 H   0  0  0  0  0  0  0  0  0  0  0  0
    0.9420   -4.7342    6.0851 H   0  0  0  0  0  0  0  0  0  0  0  0
    1.8994   -5.1464    4.6817 H   0  0  0  0  0  0  0  0  0  0  0  0
   -2.2894   -4.9199    4.7524 H   0  0  0  0  0  0  0  0  0  0  0  0
   -1.8956   -5.4568    3.1347 H   0  0  0  0  0  0  0  0  0  0  0  0
    1.4075   -7.0224    6.3037 H   0  0  0  0  0  0  0  0  0  0  0  0
   -2.4973   -7.2514    4.8863 H   0  0  0  0  0  0  0  0  0  0  0  0
    1.4874   -7.5304    3.6287 H   0  0  0  0  0  0  0  0  0  0  0  0
    0.9854   -8.7631    4.7613 H   0  0  0  0  0  0  0  0  0  0  0  0
   -1.0671   -8.8400    3.8786 H   0  0  0  0  0  0  0  0  0  0  0  0
   -0.7362   -7.5086    2.7771 H   0  0  0  0  0  0  0  0  0  0  0  0
    1.6814   -2.7051   -1.6504 H   0  0  0  0  0  0  0  0  0  0  0  0
    3.2134   -5.6502    1.1393 H   0  0  0  0  0  0  0  0  0  0  0  0
    3.5280   -3.2072   -3.1648 H   0  0  0  0  0  0  0  0  0  0  0  0
    5.0583   -6.0905   -0.3938 H   0  0  0  0  0  0  0  0  0  0  0  0
    5.2485   -4.8832   -2.5494 H   0  0  0  0  0  0  0  0  0  0  0  0
  1  2  2  0  0  0  0
  1  3  2  0  0  0  0
  1  4  1  0  0  0  0
  1  5  1  0  0  0  0
  4 27  1  0  0  0  0
  5 28  1  0  0  0  0
  6  7  1  0  0  0  0
  7  9  2  0  0  0  0
  8 21  1  0  0  0  0
  8 29  1  1  0  0  0
  8 10  1  0  0  0  0
  8  7  1  0  0  0  0
 10 11  1  0  0  0  0
 10 30  1  0  0  0  0
 10 31  1  0  0  0  0
 11 32  1  0  0  0  0
 12 18  1  0  0  0  0
 12 33  1  0  0  0  0
 12 34  1  0  0  0  0
 12 35  1  0  0  0  0
 13  6  1  0  0  0  0
 13 14  1  0  0  0  0
 13 15  1  0  0  0  0
 13 36  1  1  0  0  0
 14 37  1  0  0  0  0
 14 38  1  0  0  0  0
 15 39  1  0  0  0  0
 15 40  1  0  0  0  0
 16 14  1  0  0  0  0
 16 18  1  0  0  0  0
 16 19  1  0  0  0  0
 16 41  1  1  0  0  0
 17 15  1  0  0  0  0
 17 18  1  0  0  0  0
 17 20  1  0  0  0  0
 17 42  1  1  0  0  0
 19 20  1  0  0  0  0
 19 43  1  0  0  0  0
 19 44  1  0  0  0  0
 20 45  1  0  0  0  0
 20 46  1  0  0  0  0
 21 22  2  0  0  0  0
 21 23  1  0  0  0  0
 22 24  1  0  0  0  0
 22 47  1  0  0  0  0
 23 25  2  0  0  0  0
 23 48  1  0  0  0  0
 24 26  2  0  0  0  0
 24 49  1  0  0  0  0
 25 26  1  0  0  0  0
 25 50  1  0  0  0  0
 26 51  1  0  0  0  0
M  END
>  <Mol_ID>
10013

>  <Formula>
C17H25NO7S

>  <MolWeight>
387.4479

>  <Cat>
E5471

>  <Name>
L-Hyoscyamine sulfate

>  <Synonyms>
NA

>  <Target>
muscarinic receptors

>  <Form>
Sulfate

>  <CAS>
620-61-1

>  <URL>
https://www.selleckchem.com/products/l-hyoscyamine-sulfate.html

$$$$
