L-Kynurenine
 OpenBabel08302520143D

 27 27  0  0  0  0  0  0  0  0999 V2000
    0.2366    1.2495   -0.0486 C   0  0  0  0  0  0  0  0  0  0  0  0
    0.9926    2.5290   -0.1958 C   0  0  0  0  0  0  0  0  0  0  0  0
    0.9001    0.1238    0.4963 C   0  0  0  0  0  0  0  0  0  0  0  0
   -1.0806    1.1270   -0.5105 C   0  0  0  0  0  0  0  0  0  0  0  0
    0.2969    3.8650   -0.1229 C   0  0  0  0  0  0  0  0  0  0  0  0
    2.2224    2.4825   -0.3104 O   0  0  0  0  0  0  0  0  0  0  0  0
    0.2030   -1.0865    0.6060 C   0  0  0  0  0  0  0  0  0  0  0  0
    2.1473    0.2423    1.1554 N   0  0  0  0  0  0  0  0  0  0  0  0
   -1.7426   -0.1006   -0.4301 C   0  0  0  0  0  0  0  0  0  0  0  0
    0.2661    4.3943    1.3054 C   0  0  1  0  0  0  0  0  0  0  0  0
   -1.0998   -1.2057    0.1193 C   0  0  0  0  0  0  0  0  0  0  0  0
    1.6815    4.6749    1.8526 C   0  0  0  0  0  0  0  0  0  0  0  0
   -0.5125    5.6634    1.3120 N   0  0  0  0  0  0  0  0  0  0  0  0
    2.2269    3.6433    2.5363 O   0  0  0  0  0  0  0  0  0  0  0  0
    2.2491    5.7534    1.7373 O   0  0  0  0  0  0  0  0  0  0  0  0
   -1.6104    1.9600   -0.9643 H   0  0  0  0  0  0  0  0  0  0  0  0
    0.8450    4.5485   -0.7859 H   0  0  0  0  0  0  0  0  0  0  0  0
   -0.7136    3.8024   -0.5367 H   0  0  0  0  0  0  0  0  0  0  0  0
    0.6755   -1.9506    1.0626 H   0  0  0  0  0  0  0  0  0  0  0  0
    2.6690   -0.6292    1.1720 H   0  0  0  0  0  0  0  0  0  0  0  0
    2.7143    0.9826    0.7185 H   0  0  0  0  0  0  0  0  0  0  0  0
   -2.7601   -0.1965   -0.8005 H   0  0  0  0  0  0  0  0  0  0  0  0
   -0.2409    3.6993    1.9831 H   0  0  0  0  0  0  0  0  0  0  0  0
   -1.6150   -2.1633    0.1810 H   0  0  0  0  0  0  0  0  0  0  0  0
   -0.4226    6.0907    2.2384 H   0  0  0  0  0  0  0  0  0  0  0  0
   -0.0149    6.3319    0.7067 H   0  0  0  0  0  0  0  0  0  0  0  0
    1.7217    2.8047    2.5276 H   0  0  0  0  0  0  0  0  0  0  0  0
  1  2  1  0  0  0  0
  1  3  2  0  0  0  0
  1  4  1  0  0  0  0
  2  5  1  0  0  0  0
  2  6  2  0  0  0  0
  3  7  1  0  0  0  0
  3  8  1  0  0  0  0
  4  9  2  0  0  0  0
  4 16  1  0  0  0  0
  5 10  1  0  0  0  0
  5 17  1  0  0  0  0
  5 18  1  0  0  0  0
  7 11  2  0  0  0  0
  7 19  1  0  0  0  0
  8 20  1  0  0  0  0
  8 21  1  0  0  0  0
  9 11  1  0  0  0  0
  9 22  1  0  0  0  0
 10 12  1  0  0  0  0
 10 13  1  0  0  0  0
 10 23  1  1  0  0  0
 11 24  1  0  0  0  0
 12 14  1  0  0  0  0
 12 15  2  0  0  0  0
 13 25  1  0  0  0  0
 13 26  1  0  0  0  0
 14 27  1  0  0  0  0
M  END
>  <Mol_ID>
3152

>  <Formula>
C10H12N2O3

>  <MolWeight>
208.21388

>  <Cat>
S5839

>  <Name>
L-Kynurenine

>  <Synonyms>
(S)-Kynurenine

>  <Target>
AhR

>  <Form>
Free Base

>  <CAS>
2922-83-0

>  <URL>
http://www.selleckchem.com/products/l-kynurenine.html

$$$$
