L-Lactic acid
 OpenBabel08302520393D

 12 11  0  0  0  0  0  0  0  0999 V2000
    0.9952   -0.1852    0.0719 C   0  0  0  0  0  0  0  0  0  0  0  0
    0.2656    1.0536    0.5839 C   0  0  1  0  0  0  0  0  0  0  0  0
   -0.5931    1.5400   -0.4585 O   0  0  0  0  0  0  0  0  0  0  0  0
   -0.5874    0.6923    1.7853 C   0  0  0  0  0  0  0  0  0  0  0  0
    2.0440   -0.6185    0.5209 O   0  0  0  0  0  0  0  0  0  0  0  0
    0.3186   -0.7707   -0.9514 O   0  0  0  0  0  0  0  0  0  0  0  0
    0.9933    1.8338    0.8262 H   0  0  0  0  0  0  0  0  0  0  0  0
   -0.0285    2.0707   -1.0540 H   0  0  0  0  0  0  0  0  0  0  0  0
    0.0194    0.2773    2.5961 H   0  0  0  0  0  0  0  0  0  0  0  0
   -1.1200    1.5738    2.1576 H   0  0  0  0  0  0  0  0  0  0  0  0
   -1.3496   -0.0477    1.5159 H   0  0  0  0  0  0  0  0  0  0  0  0
   -0.4972   -0.2438   -1.1210 H   0  0  0  0  0  0  0  0  0  0  0  0
  1  2  1  0  0  0  0
  1  5  2  0  0  0  0
  1  6  1  0  0  0  0
  2  3  1  0  0  0  0
  2  4  1  0  0  0  0
  2  7  1  1  0  0  0
  3  8  1  0  0  0  0
  4  9  1  0  0  0  0
  4 10  1  0  0  0  0
  4 11  1  0  0  0  0
  6 12  1  0  0  0  0
M  END
>  <Mol_ID>
3608

>  <Formula>
C3H6O3

>  <MolWeight>
90.07794

>  <Cat>
S6250

>  <Name>
L-Lactic acid

>  <Synonyms>
N/A

>  <Target>
Others

>  <Form>
free base

>  <CAS>
79-33-4

>  <URL>
http://www.selleck.cn/products/l-lactic-acid.html

$$$$
