L-Norleucine
 OpenBabel08302521453D

 22 21  0  0  1  0  0  0  0  0999 V2000
    1.0085   -0.1837    0.1360 C   0  0  2  0  0  0  0  0  0  0  0  0
    0.4175   -1.4170    0.8546 C   0  0  0  0  0  0  0  0  0  0  0  0
    0.5171    1.1214    0.7841 C   0  0  0  0  0  0  0  0  0  0  0  0
    0.6357   -0.2296   -1.2948 N   0  0  0  0  0  0  0  0  0  0  0  0
    0.8337   -1.5646    2.1316 O   0  0  0  0  0  0  0  0  0  0  0  0
   -0.3357   -2.2226    0.3230 O   0  0  0  0  0  0  0  0  0  0  0  0
    1.0383    2.3820    0.0792 C   0  0  0  0  0  0  0  0  0  0  0  0
    0.5505    3.6604    0.7638 C   0  0  0  0  0  0  0  0  0  0  0  0
    1.0592    4.9033    0.0480 C   0  0  0  0  0  0  0  0  0  0  0  0
    2.1004   -0.2539    0.1974 H   0  0  0  0  0  0  0  0  0  0  0  0
   -0.5807    1.1377    0.8069 H   0  0  0  0  0  0  0  0  0  0  0  0
    0.8414    1.1487    1.8322 H   0  0  0  0  0  0  0  0  0  0  0  0
    0.9352   -1.1330   -1.6714 H   0  0  0  0  0  0  0  0  0  0  0  0
   -0.3860   -0.2855   -1.3497 H   0  0  0  0  0  0  0  0  0  0  0  0
    1.4651   -0.8827    2.4325 H   0  0  0  0  0  0  0  0  0  0  0  0
    2.1349    2.3668    0.0707 H   0  0  0  0  0  0  0  0  0  0  0  0
    0.7060    2.3941   -0.9652 H   0  0  0  0  0  0  0  0  0  0  0  0
   -0.5455    3.6807    0.7796 H   0  0  0  0  0  0  0  0  0  0  0  0
    0.8916    3.6799    1.8052 H   0  0  0  0  0  0  0  0  0  0  0  0
    0.6684    4.9548   -0.9736 H   0  0  0  0  0  0  0  0  0  0  0  0
    0.7386    5.8058    0.5781 H   0  0  0  0  0  0  0  0  0  0  0  0
    2.1527    4.9098   -0.0027 H   0  0  0  0  0  0  0  0  0  0  0  0
  1  2  1  0  0  0  0
  1  3  1  0  0  0  0
  1  4  1  0  0  0  0
  1 10  1  1  0  0  0
  2  5  1  0  0  0  0
  2  6  2  0  0  0  0
  3  7  1  0  0  0  0
  3 11  1  0  0  0  0
  3 12  1  0  0  0  0
  4 13  1  0  0  0  0
  4 14  1  0  0  0  0
  5 15  1  0  0  0  0
  7  8  1  0  0  0  0
  7 16  1  0  0  0  0
  7 17  1  0  0  0  0
  8  9  1  0  0  0  0
  8 18  1  0  0  0  0
  8 19  1  0  0  0  0
  9 20  1  0  0  0  0
  9 21  1  0  0  0  0
  9 22  1  0  0  0  0
M  END
>  <Mol_ID>
9510

>  <Formula>
C6H13NO2

>  <MolWeight>
131.17292

>  <Cat>
E4258

>  <Name>
L-Norleucine

>  <Synonyms>
L-Norleucine

>  <Target>
Endogenous Metabolite

>  <Form>
free base

>  <CAS>
327-57-1

>  <URL>
https://www.selleckchem.com/products/l-norleucine.html

$$$$
