L-Perillaldehyde
 OpenBabel08302521373D

 25 25  0  0  0  0  0  0  0  0999 V2000
    0.8030   -0.0179    0.1222 C   0  0  0  0  0  0  0  0  0  0  0  0
    0.1832    1.3237   -0.1834 C   0  0  0  0  0  0  0  0  0  0  0  0
   -0.0172   -1.0268    0.4670 C   0  0  0  0  0  0  0  0  0  0  0  0
    2.6316   -3.3820   -2.7805 C   0  0  0  0  0  0  0  0  0  0  0  0
    2.4809   -3.2135   -3.9859 O   0  0  0  0  0  0  0  0  0  0  0  0
    2.3334   -0.0990    0.0613 C   0  0  3  0  0  0  0  0  0  0  0  0
    2.8935    0.2291   -1.3391 C   0  0  0  0  0  0  0  0  0  0  0  0
    2.9622   -1.4379    0.5274 C   0  0  0  0  0  0  0  0  0  0  0  0
    2.5899   -0.8616   -2.3722 C   0  0  0  0  0  0  0  0  0  0  0  0
    2.9204   -2.5211   -0.5194 C   0  0  0  0  0  0  0  0  0  0  0  0
    2.7263   -2.2499   -1.8209 C   0  0  0  0  0  0  0  0  0  0  0  0
   -0.4233    1.2643   -1.0934 H   0  0  0  0  0  0  0  0  0  0  0  0
   -0.4533    1.6514    0.6459 H   0  0  0  0  0  0  0  0  0  0  0  0
    0.9383    2.1011   -0.3319 H   0  0  0  0  0  0  0  0  0  0  0  0
    0.3346   -2.0199    0.7198 H   0  0  0  0  0  0  0  0  0  0  0  0
   -1.0942   -0.8841    0.5065 H   0  0  0  0  0  0  0  0  0  0  0  0
    2.6986   -4.3907   -2.3448 H   0  0  0  0  0  0  0  0  0  0  0  0
    2.6984    0.6713    0.7559 H   0  0  0  0  0  0  0  0  0  0  0  0
    2.5242    1.1920   -1.7091 H   0  0  0  0  0  0  0  0  0  0  0  0
    3.9838    0.3421   -1.2571 H   0  0  0  0  0  0  0  0  0  0  0  0
    4.0152   -1.2704    0.7887 H   0  0  0  0  0  0  0  0  0  0  0  0
    2.4787   -1.7913    1.4455 H   0  0  0  0  0  0  0  0  0  0  0  0
    1.5721   -0.7269   -2.7576 H   0  0  0  0  0  0  0  0  0  0  0  0
    3.2738   -0.7287   -3.2201 H   0  0  0  0  0  0  0  0  0  0  0  0
    3.0348   -3.5416   -0.1630 H   0  0  0  0  0  0  0  0  0  0  0  0
  1  2  1  0  0  0  0
  1  3  2  0  0  0  0
  1  6  1  0  0  0  0
  2 12  1  0  0  0  0
  2 13  1  0  0  0  0
  2 14  1  0  0  0  0
  3 15  1  0  0  0  0
  3 16  1  0  0  0  0
  4  5  2  0  0  0  0
  4 11  1  0  0  0  0
  4 17  1  0  0  0  0
  6  7  1  0  0  0  0
  6  8  1  0  0  0  0
  6 18  1  0  0  0  0
  7  9  1  0  0  0  0
  7 19  1  0  0  0  0
  7 20  1  0  0  0  0
  8 10  1  0  0  0  0
  8 21  1  0  0  0  0
  8 22  1  0  0  0  0
  9 11  1  0  0  0  0
  9 23  1  0  0  0  0
  9 24  1  0  0  0  0
 10 11  2  0  0  0  0
 10 25  1  0  0  0  0
M  END
>  <Mol_ID>
7395

>  <Formula>
C10H14O

>  <MolWeight>
150.21756

>  <Cat>
E4485

>  <Name>
L-Perillaldehyde

>  <Synonyms>
(S)-(-)-Perillaldehyde; (S)-Perillaldehyde

>  <Target>
Others

>  <Form>
Free base

>  <CAS>
2111-75-3

>  <URL>
https://www.selleckchem.com/products/l-perillaldehyde.html

$$$$
