L-Quebrachitol
 OpenBabel08302521243D

 27 27  0  0  0  0  0  0  0  0999 V2000
    1.0777    0.1610   -0.1017 O   0  0  0  0  0  0  0  0  0  0  0  0
   -1.4697   -0.5322    0.7754 O   0  0  0  0  0  0  0  0  0  0  0  0
    0.6759    2.7866    2.5123 O   0  0  0  0  0  0  0  0  0  0  0  0
    1.3277    2.6928   -1.1503 O   0  0  0  0  0  0  0  0  0  0  0  0
   -2.8426    1.8033   -0.3226 O   0  0  0  0  0  0  0  0  0  0  0  0
   -1.1184    3.7915   -1.3971 O   0  0  0  0  0  0  0  0  0  0  0  0
    0.5431    0.7838    1.0932 C   0  0  3  0  0  0  0  0  0  0  0  0
   -0.9956    0.8126    0.9352 C   0  0  1  0  0  0  0  0  0  0  0  0
    1.0852    2.2192    1.2671 C   0  0  1  0  0  0  0  0  0  0  0  0
    0.6893    3.1058    0.0710 C   0  0  2  0  0  0  0  0  0  0  0  0
   -1.4126    1.6848   -0.2648 C   0  0  2  0  0  0  0  0  0  0  0  0
   -0.8267    3.1020   -0.1697 C   0  0  3  0  0  0  0  0  0  0  0  0
    2.4747   -0.1305   -0.0208 C   0  0  0  0  0  0  0  0  0  0  0  0
   -1.0340   -0.8913   -0.0189 H   0  0  0  0  0  0  0  0  0  0  0  0
   -0.2855    2.9293    2.5390 H   0  0  0  0  0  0  0  0  0  0  0  0
    1.2186    1.7214   -1.2375 H   0  0  0  0  0  0  0  0  0  0  0  0
   -3.0230    2.4426   -1.0410 H   0  0  0  0  0  0  0  0  0  0  0  0
   -0.3181    3.7069   -1.9489 H   0  0  0  0  0  0  0  0  0  0  0  0
    0.7899    0.1569    1.9584 H   0  0  0  0  0  0  0  0  0  0  0  0
   -1.4692    1.1912    1.8477 H   0  0  0  0  0  0  0  0  0  0  0  0
    2.1782    2.1795    1.3067 H   0  0  0  0  0  0  0  0  0  0  0  0
    1.0142    4.1370    0.2472 H   0  0  0  0  0  0  0  0  0  0  0  0
   -1.1221    1.2033   -1.2065 H   0  0  0  0  0  0  0  0  0  0  0  0
   -1.3354    3.6550    0.6290 H   0  0  0  0  0  0  0  0  0  0  0  0
    2.7315   -0.7793   -0.8602 H   0  0  0  0  0  0  0  0  0  0  0  0
    3.0607    0.7903   -0.1275 H   0  0  0  0  0  0  0  0  0  0  0  0
    2.7258   -0.6323    0.9138 H   0  0  0  0  0  0  0  0  0  0  0  0
  1  7  1  0  0  0  0
  1 13  1  0  0  0  0
  2 14  1  0  0  0  0
  3 15  1  0  0  0  0
  4 16  1  0  0  0  0
  5 17  1  0  0  0  0
  6 12  1  0  0  0  0
  6 18  1  0  0  0  0
  7  8  1  0  0  0  0
  7  9  1  0  0  0  0
  7 19  1  0  0  0  0
  8  2  1  0  0  0  0
  8 11  1  0  0  0  0
  8 20  1  1  0  0  0
  9  3  1  0  0  0  0
  9 10  1  0  0  0  0
  9 21  1  1  0  0  0
 10  4  1  0  0  0  0
 10 12  1  0  0  0  0
 10 22  1  1  0  0  0
 11 12  1  0  0  0  0
 11 23  1  6  0  0  0
 11  5  1  0  0  0  0
 12 24  1  0  0  0  0
 13 25  1  0  0  0  0
 13 26  1  0  0  0  0
 13 27  1  0  0  0  0
M  END
>  <Mol_ID>
5112

>  <Formula>
C7H14O6

>  <MolWeight>
194.18246

>  <Cat>
S3223

>  <Name>
L-Quebrachitol

>  <Synonyms>
L-QCT

>  <Target>
NF-¦ÊB,RUNX,TGF-beta/Smad,Wnt/beta-catenin

>  <Form>
free base

>  <CAS>
642-38-6

>  <URL>
http://www.selleckchem.com/products/l-quebrachitol.html

$$$$
