Lacidipine.cdx
 OpenBabel08302521443D

 66 67  0  0  0  0  0  0  0  0999 V2000
   -0.3796    1.3623   -0.0624 C   0  0  0  0  0  0  0  0  0  0  0  0
   -1.3604    0.5418    0.4962 C   0  0  0  0  0  0  0  0  0  0  0  0
   -0.9887   -0.4877    1.3433 C   0  0  0  0  0  0  0  0  0  0  0  0
    0.3657   -0.7328    1.5688 C   0  0  0  0  0  0  0  0  0  0  0  0
    1.3763    0.0701    0.9860 C   0  0  0  0  0  0  0  0  0  0  0  0
    1.0043    1.1873    0.2023 C   0  0  0  0  0  0  0  0  0  0  0  0
    1.9213    2.3469   -0.2487 C   0  0  3  0  0  0  0  0  0  0  0  0
    2.7008    2.1676   -1.5703 C   0  0  0  0  0  0  0  0  0  0  0  0
    4.0540    2.2898   -1.5781 C   0  0  0  0  0  0  0  0  0  0  0  0
    4.7266    2.5830   -0.4040 N   0  0  0  0  0  0  0  0  0  0  0  0
    4.1105    3.1267    0.7117 C   0  0  0  0  0  0  0  0  0  0  0  0
    2.7792    2.9473    0.8973 C   0  0  0  0  0  0  0  0  0  0  0  0
    4.9611    2.2962   -2.7910 C   0  0  0  0  0  0  0  0  0  0  0  0
    5.0416    3.9906    1.5297 C   0  0  0  0  0  0  0  0  0  0  0  0
    2.0259    3.4174    2.1017 C   0  0  0  0  0  0  0  0  0  0  0  0
    2.7904    3.3353    3.2192 O   0  0  0  0  0  0  0  0  0  0  0  0
    2.2583    3.8572    4.4534 C   0  0  0  0  0  0  0  0  0  0  0  0
    1.7007    2.7467    5.3242 C   0  0  0  0  0  0  0  0  0  0  0  0
    0.8560    3.7661    2.0744 O   0  0  0  0  0  0  0  0  0  0  0  0
    2.0109    2.3371   -2.8846 C   0  0  0  0  0  0  0  0  0  0  0  0
    0.8056    1.7225   -2.9452 O   0  0  0  0  0  0  0  0  0  0  0  0
    0.0486    2.0011   -4.1423 C   0  0  0  0  0  0  0  0  0  0  0  0
    0.3719    1.0204   -5.2599 C   0  0  0  0  0  0  0  0  0  0  0  0
    2.7597   -0.2809    1.3603 C   0  0  0  0  0  0  0  0  0  0  0  0
    3.2119    0.0981    2.5617 C   0  0  0  0  0  0  0  0  0  0  0  0
    4.5207   -0.1133    3.1985 C   0  0  0  0  0  0  0  0  0  0  0  0
    4.7681    0.4475    4.2521 O   0  0  0  0  0  0  0  0  0  0  0  0
    5.3567   -0.9392    2.5153 O   0  0  0  0  0  0  0  0  0  0  0  0
    6.7107   -1.0968    3.0330 C   0  0  0  0  0  0  0  0  0  0  0  0
    6.7287   -1.7291    4.4340 C   0  0  0  0  0  0  0  0  0  0  0  0
    7.4494   -2.0656    2.0880 C   0  0  0  0  0  0  0  0  0  0  0  0
    7.4564    0.2425    2.9890 C   0  0  0  0  0  0  0  0  0  0  0  0
    2.4680    3.0161   -3.7965 O   0  0  0  0  0  0  0  0  0  0  0  0
   -0.7155    2.1995   -0.6744 H   0  0  0  0  0  0  0  0  0  0  0  0
   -2.4118    0.7408    0.3030 H   0  0  0  0  0  0  0  0  0  0  0  0
   -1.7486   -1.0893    1.8378 H   0  0  0  0  0  0  0  0  0  0  0  0
    0.6297   -1.5423    2.2490 H   0  0  0  0  0  0  0  0  0  0  0  0
    1.2416    3.1831   -0.4825 H   0  0  0  0  0  0  0  0  0  0  0  0
    5.7059    2.8378   -0.5228 H   0  0  0  0  0  0  0  0  0  0  0  0
    5.2694    3.3276   -3.0057 H   0  0  0  0  0  0  0  0  0  0  0  0
    5.8686    1.7183   -2.5832 H   0  0  0  0  0  0  0  0  0  0  0  0
    4.5204    1.8645   -3.6908 H   0  0  0  0  0  0  0  0  0  0  0  0
    5.9543    3.4424    1.7851 H   0  0  0  0  0  0  0  0  0  0  0  0
    5.3378    4.8486    0.9110 H   0  0  0  0  0  0  0  0  0  0  0  0
    4.6245    4.4104    2.4427 H   0  0  0  0  0  0  0  0  0  0  0  0
    3.0979    4.3305    4.9742 H   0  0  0  0  0  0  0  0  0  0  0  0
    1.5106    4.6400    4.2802 H   0  0  0  0  0  0  0  0  0  0  0  0
    2.2233    1.8000    5.1688 H   0  0  0  0  0  0  0  0  0  0  0  0
    1.7759    3.0138    6.3835 H   0  0  0  0  0  0  0  0  0  0  0  0
    0.6414    2.5825    5.1019 H   0  0  0  0  0  0  0  0  0  0  0  0
   -1.0101    1.9147   -3.8788 H   0  0  0  0  0  0  0  0  0  0  0  0
    0.1971    3.0346   -4.4842 H   0  0  0  0  0  0  0  0  0  0  0  0
    0.3709   -0.0093   -4.8918 H   0  0  0  0  0  0  0  0  0  0  0  0
   -0.3592    1.1083   -6.0710 H   0  0  0  0  0  0  0  0  0  0  0  0
    1.3627    1.2150   -5.6816 H   0  0  0  0  0  0  0  0  0  0  0  0
    3.3312   -0.8943    0.6710 H   0  0  0  0  0  0  0  0  0  0  0  0
    2.5644    0.6952    3.1968 H   0  0  0  0  0  0  0  0  0  0  0  0
    6.2444   -2.7149    4.4184 H   0  0  0  0  0  0  0  0  0  0  0  0
    7.7493   -1.8544    4.8023 H   0  0  0  0  0  0  0  0  0  0  0  0
    6.1855   -1.1360    5.1846 H   0  0  0  0  0  0  0  0  0  0  0  0
    7.3982   -1.7239    1.0493 H   0  0  0  0  0  0  0  0  0  0  0  0
    8.5054   -2.1612    2.3684 H   0  0  0  0  0  0  0  0  0  0  0  0
    7.0027   -3.0645    2.1163 H   0  0  0  0  0  0  0  0  0  0  0  0
    7.4327    0.6638    1.9732 H   0  0  0  0  0  0  0  0  0  0  0  0
    6.9983    1.0019    3.6402 H   0  0  0  0  0  0  0  0  0  0  0  0
    8.5005    0.1396    3.2968 H   0  0  0  0  0  0  0  0  0  0  0  0
  1  2  2  0  0  0  0
  1 34  1  0  0  0  0
  2  3  1  0  0  0  0
  2 35  1  0  0  0  0
  3  4  2  0  0  0  0
  3 36  1  0  0  0  0
  4  5  1  0  0  0  0
  4 37  1  0  0  0  0
  5  6  2  0  0  0  0
  5 24  1  0  0  0  0
  6  1  1  0  0  0  0
  6  7  1  0  0  0  0
  7  8  1  0  0  0  0
  7 38  1  0  0  0  0
  8  9  2  0  0  0  0
  8 20  1  0  0  0  0
  9 10  1  0  0  0  0
  9 13  1  0  0  0  0
 10 11  1  0  0  0  0
 10 39  1  0  0  0  0
 11 12  2  0  0  0  0
 11 14  1  0  0  0  0
 12  7  1  0  0  0  0
 12 15  1  0  0  0  0
 13 40  1  0  0  0  0
 13 41  1  0  0  0  0
 13 42  1  0  0  0  0
 14 43  1  0  0  0  0
 14 44  1  0  0  0  0
 14 45  1  0  0  0  0
 15 16  1  0  0  0  0
 15 19  2  0  0  0  0
 16 17  1  0  0  0  0
 17 18  1  0  0  0  0
 17 46  1  0  0  0  0
 17 47  1  0  0  0  0
 18 48  1  0  0  0  0
 18 49  1  0  0  0  0
 18 50  1  0  0  0  0
 20 21  1  0  0  0  0
 20 33  2  0  0  0  0
 21 22  1  0  0  0  0
 22 23  1  0  0  0  0
 22 51  1  0  0  0  0
 22 52  1  0  0  0  0
 23 53  1  0  0  0  0
 23 54  1  0  0  0  0
 23 55  1  0  0  0  0
 24 25  2  0  0  0  0
 24 56  1  0  0  0  0
 25 26  1  0  0  0  0
 25 57  1  0  0  0  0
 26 27  2  0  0  0  0
 26 28  1  0  0  0  0
 28 29  1  0  0  0  0
 29 30  1  0  0  0  0
 29 31  1  0  0  0  0
 29 32  1  0  0  0  0
 30 58  1  0  0  0  0
 30 59  1  0  0  0  0
 30 60  1  0  0  0  0
 31 61  1  0  0  0  0
 31 62  1  0  0  0  0
 31 63  1  0  0  0  0
 32 64  1  0  0  0  0
 32 65  1  0  0  0  0
 32 66  1  0  0  0  0
M  END
>  <Mol_ID>
912

>  <Formula>
C26H33NO6

>  <MolWeight>
455.54332

>  <Cat>
S1994

>  <Name>
Lacidipine

>  <Synonyms>
GX-1048, GR-43659X, SN-305

>  <Target>
Calcium Channel

>  <Form>
free base

>  <CAS>
103890-78-4

>  <URL>
http://selleckchem.com/products/lacidipine-lacipil-motens.html

$$$$
