Lamotrigine.cdx
 OpenBabel08302521313D

 23 24  0  0  0  0  0  0  0  0999 V2000
   -0.0728   -1.6902   -0.0851 N   0  0  0  0  0  0  0  0  0  0  0  0
   -1.1963   -0.9162   -0.1014 N   0  0  0  0  0  0  0  0  0  0  0  0
   -1.0831    0.4218   -0.1506 C   0  0  0  0  0  0  0  0  0  0  0  0
    0.0868    1.0658   -0.1463 N   0  0  0  0  0  0  0  0  0  0  0  0
    1.1946    0.2983   -0.1281 C   0  0  0  0  0  0  0  0  0  0  0  0
    1.1437   -1.1016   -0.1181 C   0  0  0  0  0  0  0  0  0  0  0  0
   -2.2306    1.1940   -0.1525 N   0  0  0  0  0  0  0  0  0  0  0  0
    2.3869    1.0332   -0.1308 N   0  0  0  0  0  0  0  0  0  0  0  0
    2.3013   -2.0232   -0.1019 C   0  0  0  0  0  0  0  0  0  0  0  0
    3.5180   -1.7280   -0.7434 C   0  0  0  0  0  0  0  0  0  0  0  0
    4.6068   -2.6056   -0.6939 C   0  0  0  0  0  0  0  0  0  0  0  0
    4.4965   -3.8178   -0.0205 C   0  0  0  0  0  0  0  0  0  0  0  0
    3.2969   -4.1532    0.5984 C   0  0  0  0  0  0  0  0  0  0  0  0
    2.2158   -3.2674    0.5577 C   0  0  0  0  0  0  0  0  0  0  0  0
   -2.0313    2.1137    0.2139 H   0  0  0  0  0  0  0  0  0  0  0  0
   -3.0047    0.6871    0.2527 H   0  0  0  0  0  0  0  0  0  0  0  0
    2.1382    2.0184   -0.0757 H   0  0  0  0  0  0  0  0  0  0  0  0
    3.0056    0.7491    0.6221 H   0  0  0  0  0  0  0  0  0  0  0  0
    3.6361   -0.8077   -1.3128 H   0  0  0  0  0  0  0  0  0  0  0  0
    5.5365   -2.3425   -1.1917 H   0  0  0  0  0  0  0  0  0  0  0  0
    5.3388   -4.5030    0.0115 H   0  0  0  0  0  0  0  0  0  0  0  0
    3.1972   -5.1069    1.1112 H   0  0  0  0  0  0  0  0  0  0  0  0
    1.2900   -3.5605    1.0519 H   0  0  0  0  0  0  0  0  0  0  0  0
  1  2  2  0  0  0  0
  1  6  1  0  0  0  0
  2  3  1  0  0  0  0
  3  4  2  0  0  0  0
  3  7  1  0  0  0  0
  4  5  1  0  0  0  0
  5  6  2  0  0  0  0
  5  8  1  0  0  0  0
  6  9  1  0  0  0  0
  7 15  1  0  0  0  0
  7 16  1  0  0  0  0
  8 17  1  0  0  0  0
  8 18  1  0  0  0  0
  9 10  2  0  0  0  0
  9 14  1  0  0  0  0
 10 11  1  0  0  0  0
 10 19  1  0  0  0  0
 11 12  2  0  0  0  0
 11 20  1  0  0  0  0
 12 13  1  0  0  0  0
 12 21  1  0  0  0  0
 13 14  2  0  0  0  0
 13 22  1  0  0  0  0
 14 23  1  0  0  0  0
M  END
>  <Mol_ID>
569

>  <Formula>
C9H7Cl2N5

>  <MolWeight>
256.09138

>  <Cat>
S3024

>  <Name>
Lamotrigine

>  <Synonyms>
BW-430C,LTG

>  <Target>
5-HT Receptor,Sodium Channel

>  <Form>
free base

>  <CAS>
84057-84-1

>  <URL>
http://selleckchem.com/products/lamotrigine.html

$$$$
