Laninamivir Octanoate
 OpenBabel08302521353D

 69 69  0  0  0  0  0  0  0  0999 V2000
    0.0747   -1.2250    0.1003 C   0  0  1  0  0  0  0  0  0  0  0  0
    0.7605   -0.4352    1.2476 C   0  0  1  0  0  0  0  0  0  0  0  0
   -0.0176    0.8664    1.5091 C   0  0  2  0  0  0  0  0  0  0  0  0
   -0.5246    1.4854    0.2745 C   0  0  0  0  0  0  0  0  0  0  0  0
   -0.4895    0.8662   -0.9063 C   0  0  0  0  0  0  0  0  0  0  0  0
    0.0353   -0.4123   -1.1135 O   0  0  0  0  0  0  0  0  0  0  0  0
   -1.0069    1.7885   -1.9488 C   0  0  0  0  0  0  0  0  0  0  0  0
   -0.3548    2.5243   -2.6687 O   0  0  0  0  0  0  0  0  0  0  0  0
   -2.3439    1.9381   -1.8574 O   0  0  0  0  0  0  0  0  0  0  0  0
    0.6498   -2.6935   -0.0269 C   0  0  1  0  0  0  0  0  0  0  0  0
    0.0029   -3.5665   -1.1420 C   0  0  1  0  0  0  0  0  0  0  0  0
    0.5082   -3.3772   -2.5797 C   0  0  0  0  0  0  0  0  0  0  0  0
    0.3642   -2.0646   -3.1295 O   0  0  0  0  0  0  0  0  0  0  0  0
   -0.8397   -1.7432   -3.6598 C   0  0  0  0  0  0  0  0  0  0  0  0
   -0.8352   -0.4055   -4.3753 C   0  0  0  0  0  0  0  0  0  0  0  0
    0.4580    0.4191   -4.3473 C   0  0  0  0  0  0  0  0  0  0  0  0
    1.6229   -0.1101   -5.1515 C   0  0  0  0  0  0  0  0  0  0  0  0
    1.2827   -0.2059   -6.6292 C   0  0  0  0  0  0  0  0  0  0  0  0
    2.4367   -0.7731   -7.4376 C   0  0  0  0  0  0  0  0  0  0  0  0
    2.8467   -2.1605   -6.9475 C   0  0  0  0  0  0  0  0  0  0  0  0
    3.9362   -2.7415   -7.8195 C   0  0  0  0  0  0  0  0  0  0  0  0
   -1.8414   -2.4464   -3.5891 O   0  0  0  0  0  0  0  0  0  0  0  0
    2.0867   -2.8381   -0.1006 O   0  0  0  0  0  0  0  0  0  0  0  0
    2.7684   -2.9746    1.1496 C   0  0  0  0  0  0  0  0  0  0  0  0
    0.2130   -4.9732   -0.8299 O   0  0  0  0  0  0  0  0  0  0  0  0
    0.8561    1.8226    2.1867 N   0  0  0  0  0  0  0  0  0  0  0  0
    0.2921    2.7760    2.8395 C   0  0  0  0  0  0  0  0  0  0  0  0
   -1.0132    3.0350    3.0258 N   0  0  0  0  0  0  0  0  0  0  0  0
    1.0601    3.7434    3.3699 N   0  0  0  0  0  0  0  0  0  0  0  0
   -0.2050   -1.6655    3.1797 C   0  0  0  0  0  0  0  0  0  0  0  0
    0.0814   -2.2034    4.5471 C   0  0  0  0  0  0  0  0  0  0  0  0
   -1.3299   -1.7047    2.6932 O   0  0  0  0  0  0  0  0  0  0  0  0
    0.8904   -1.1528    2.5253 N   0  0  0  0  0  0  0  0  0  0  0  0
   -0.9836   -1.3835    0.3418 H   0  0  0  0  0  0  0  0  0  0  0  0
    1.7836   -0.1865    0.9278 H   0  0  0  0  0  0  0  0  0  0  0  0
   -0.8886    0.6344    2.1237 H   0  0  0  0  0  0  0  0  0  0  0  0
   -0.9249    2.4934    0.3436 H   0  0  0  0  0  0  0  0  0  0  0  0
   -2.5184    2.7055   -2.4424 H   0  0  0  0  0  0  0  0  0  0  0  0
    0.3429   -3.2002    0.8994 H   0  0  0  0  0  0  0  0  0  0  0  0
   -1.0807   -3.4241   -1.1029 H   0  0  0  0  0  0  0  0  0  0  0  0
    1.5736   -3.6271   -2.6360 H   0  0  0  0  0  0  0  0  0  0  0  0
    0.0194   -4.1084   -3.2392 H   0  0  0  0  0  0  0  0  0  0  0  0
   -1.1597   -0.5751   -5.4051 H   0  0  0  0  0  0  0  0  0  0  0  0
   -1.6255    0.1893   -3.9059 H   0  0  0  0  0  0  0  0  0  0  0  0
    0.2328    1.4238   -4.7248 H   0  0  0  0  0  0  0  0  0  0  0  0
    0.8317    0.5205   -3.3271 H   0  0  0  0  0  0  0  0  0  0  0  0
    2.4796    0.5647   -5.0182 H   0  0  0  0  0  0  0  0  0  0  0  0
    1.9252   -1.0717   -4.7333 H   0  0  0  0  0  0  0  0  0  0  0  0
    0.4070   -0.8425   -6.7830 H   0  0  0  0  0  0  0  0  0  0  0  0
    1.0253    0.7912   -7.0077 H   0  0  0  0  0  0  0  0  0  0  0  0
    2.1253   -0.8250   -8.4869 H   0  0  0  0  0  0  0  0  0  0  0  0
    3.2902   -0.0892   -7.3859 H   0  0  0  0  0  0  0  0  0  0  0  0
    3.2352   -2.1119   -5.9239 H   0  0  0  0  0  0  0  0  0  0  0  0
    1.9769   -2.8286   -6.9305 H   0  0  0  0  0  0  0  0  0  0  0  0
    4.7906   -2.0586   -7.8645 H   0  0  0  0  0  0  0  0  0  0  0  0
    4.2782   -3.6941   -7.4044 H   0  0  0  0  0  0  0  0  0  0  0  0
    3.5662   -2.9106   -8.8338 H   0  0  0  0  0  0  0  0  0  0  0  0
    3.2253   -2.0182    1.4195 H   0  0  0  0  0  0  0  0  0  0  0  0
    2.1300   -3.3310    1.9658 H   0  0  0  0  0  0  0  0  0  0  0  0
    3.5813   -3.7009    1.0456 H   0  0  0  0  0  0  0  0  0  0  0  0
    0.8300   -5.0369   -0.0804 H   0  0  0  0  0  0  0  0  0  0  0  0
   -1.2970    3.5670    3.8249 H   0  0  0  0  0  0  0  0  0  0  0  0
   -1.6996    2.3351    2.7410 H   0  0  0  0  0  0  0  0  0  0  0  0
    2.0497    3.5235    3.2948 H   0  0  0  0  0  0  0  0  0  0  0  0
    0.8028    4.1011    4.2615 H   0  0  0  0  0  0  0  0  0  0  0  0
   -0.4834   -1.6203    5.2785 H   0  0  0  0  0  0  0  0  0  0  0  0
   -0.2327   -3.2497    4.5773 H   0  0  0  0  0  0  0  0  0  0  0  0
    1.1453   -2.1485    4.7889 H   0  0  0  0  0  0  0  0  0  0  0  0
    1.6911   -0.8817    3.0833 H   0  0  0  0  0  0  0  0  0  0  0  0
  1  2  1  0  0  0  0
  1  6  1  0  0  0  0
  1 10  1  0  0  0  0
  1 34  1  1  0  0  0
  2  3  1  0  0  0  0
  2 33  1  0  0  0  0
  2 35  1  6  0  0  0
  3  4  1  0  0  0  0
  3 36  1  1  0  0  0
  3 26  1  0  0  0  0
  4  5  2  0  0  0  0
  4 37  1  0  0  0  0
  5  6  1  0  0  0  0
  5  7  1  0  0  0  0
  7  8  2  0  0  0  0
  7  9  1  0  0  0  0
  9 38  1  0  0  0  0
 10 11  1  0  0  0  0
 10 23  1  0  0  0  0
 10 39  1  1  0  0  0
 11 12  1  0  0  0  0
 11 25  1  0  0  0  0
 11 40  1  1  0  0  0
 12 13  1  0  0  0  0
 12 41  1  0  0  0  0
 12 42  1  0  0  0  0
 13 14  1  0  0  0  0
 14 15  1  0  0  0  0
 14 22  2  0  0  0  0
 15 16  1  0  0  0  0
 15 43  1  0  0  0  0
 15 44  1  0  0  0  0
 16 17  1  0  0  0  0
 16 45  1  0  0  0  0
 16 46  1  0  0  0  0
 17 18  1  0  0  0  0
 17 47  1  0  0  0  0
 17 48  1  0  0  0  0
 18 19  1  0  0  0  0
 18 49  1  0  0  0  0
 18 50  1  0  0  0  0
 19 20  1  0  0  0  0
 19 51  1  0  0  0  0
 19 52  1  0  0  0  0
 20 21  1  0  0  0  0
 20 53  1  0  0  0  0
 20 54  1  0  0  0  0
 21 55  1  0  0  0  0
 21 56  1  0  0  0  0
 21 57  1  0  0  0  0
 23 24  1  0  0  0  0
 24 58  1  0  0  0  0
 24 59  1  0  0  0  0
 24 60  1  0  0  0  0
 25 61  1  0  0  0  0
 26 27  2  0  0  0  0
 27 28  1  0  0  0  0
 27 29  1  0  0  0  0
 28 62  1  0  0  0  0
 28 63  1  0  0  0  0
 29 64  1  0  0  0  0
 29 65  1  0  0  0  0
 30 31  1  0  0  0  0
 30 32  2  0  0  0  0
 30 33  1  0  0  0  0
 31 66  1  0  0  0  0
 31 67  1  0  0  0  0
 31 68  1  0  0  0  0
 33 69  1  0  0  0  0
M  END
>  <Mol_ID>
6645

>  <Formula>
C21H36N4O8

>  <MolWeight>
472.53254

>  <Cat>
S0861

>  <Name>
Laninamivir Octanoate

>  <Synonyms>
CS-8958, R-118958, Inavir, LANI

>  <Target>
Influenza Virus,Neuraminidase

>  <Form>
Free base

>  <CAS>
203120-46-1

>  <URL>
http://www.selleckchem.com/products/laninamivir-octanoate.html

$$$$
