Lansoprazole.cdx
 OpenBabel08302519553D

 39 41  0  0  0  0  0  0  0  0999 V2000
    1.9836    2.1243   -0.6114 C   0  0  0  0  0  0  0  0  0  0  0  0
    2.2651    1.0117    0.1917 C   0  0  0  0  0  0  0  0  0  0  0  0
    1.2468    0.1674    0.6527 C   0  0  0  0  0  0  0  0  0  0  0  0
   -0.0571    0.5054    0.2883 C   0  0  0  0  0  0  0  0  0  0  0  0
   -0.3664    1.6167   -0.4942 C   0  0  0  0  0  0  0  0  0  0  0  0
    0.6701    2.4322   -0.9668 C   0  0  0  0  0  0  0  0  0  0  0  0
   -1.2789   -0.0572    0.5644 N   0  0  0  0  0  0  0  0  0  0  0  0
   -2.2485    0.7370    0.0054 C   0  0  0  0  0  0  0  0  0  0  0  0
   -1.7246    1.7421   -0.6588 N   0  0  0  0  0  0  0  0  0  0  0  0
   -3.9351    0.5128    0.2918 S   0  0  3  0  0  0  0  0  0  0  0  0
   -4.6408    0.9336   -1.3142 C   0  0  0  0  0  0  0  0  0  0  0  0
   -4.2506    0.1181   -2.5237 C   0  0  0  0  0  0  0  0  0  0  0  0
   -4.1374   -0.9183    0.6851 O   0  0  0  0  0  0  0  0  0  0  0  0
   -3.6088    0.8425   -3.4833 N   0  0  0  0  0  0  0  0  0  0  0  0
   -3.2749    0.2391   -4.6347 C   0  0  0  0  0  0  0  0  0  0  0  0
   -3.5026   -1.0941   -4.8835 C   0  0  0  0  0  0  0  0  0  0  0  0
   -4.1138   -1.8582   -3.8919 C   0  0  0  0  0  0  0  0  0  0  0  0
   -4.5997   -1.2291   -2.7283 C   0  0  0  0  0  0  0  0  0  0  0  0
   -5.4658   -1.9870   -1.7613 C   0  0  0  0  0  0  0  0  0  0  0  0
   -4.2751   -3.2238   -4.0067 O   0  0  0  0  0  0  0  0  0  0  0  0
   -3.3247   -3.8626   -4.8828 C   0  0  0  0  0  0  0  0  0  0  0  0
   -3.1701   -5.3621   -4.6505 C   0  0  0  0  0  0  0  0  0  0  0  0
   -3.9604   -5.8413   -3.6703 F   0  0  0  0  0  0  0  0  0  0  0  0
   -3.4571   -6.0496   -5.7831 F   0  0  0  0  0  0  0  0  0  0  0  0
   -1.8878   -5.6615   -4.3264 F   0  0  0  0  0  0  0  0  0  0  0  0
    2.7926    2.7641   -0.9492 H   0  0  0  0  0  0  0  0  0  0  0  0
    3.2983    0.8011    0.4647 H   0  0  0  0  0  0  0  0  0  0  0  0
    1.4681   -0.6941    1.2724 H   0  0  0  0  0  0  0  0  0  0  0  0
    0.4358    3.2948   -1.5799 H   0  0  0  0  0  0  0  0  0  0  0  0
   -1.4598   -0.8777    1.1257 H   0  0  0  0  0  0  0  0  0  0  0  0
   -5.7305    0.9238   -1.2109 H   0  0  0  0  0  0  0  0  0  0  0  0
   -4.3763    1.9839   -1.4940 H   0  0  0  0  0  0  0  0  0  0  0  0
   -2.7967    0.8738   -5.3736 H   0  0  0  0  0  0  0  0  0  0  0  0
   -3.2039   -1.4994   -5.8416 H   0  0  0  0  0  0  0  0  0  0  0  0
   -4.8625   -2.4781   -0.9965 H   0  0  0  0  0  0  0  0  0  0  0  0
   -6.1988   -1.3258   -1.2862 H   0  0  0  0  0  0  0  0  0  0  0  0
   -6.0570   -2.7534   -2.2735 H   0  0  0  0  0  0  0  0  0  0  0  0
   -3.6527   -3.7055   -5.9167 H   0  0  0  0  0  0  0  0  0  0  0  0
   -2.3318   -3.4126   -4.7531 H   0  0  0  0  0  0  0  0  0  0  0  0
  1  2  2  0  0  0  0
  1 26  1  0  0  0  0
  2  3  1  0  0  0  0
  2 27  1  0  0  0  0
  3  4  2  0  0  0  0
  3 28  1  0  0  0  0
  4  5  1  0  0  0  0
  4  7  1  0  0  0  0
  5  6  2  0  0  0  0
  6  1  1  0  0  0  0
  6 29  1  0  0  0  0
  7  8  1  0  0  0  0
  7 30  1  0  0  0  0
  8  9  2  0  0  0  0
  8 10  1  0  0  0  0
  9  5  1  0  0  0  0
 10 11  1  0  0  0  0
 10 13  2  0  0  0  0
 11 12  1  0  0  0  0
 11 31  1  0  0  0  0
 11 32  1  0  0  0  0
 12 14  2  0  0  0  0
 14 15  1  0  0  0  0
 15 16  2  0  0  0  0
 15 33  1  0  0  0  0
 16 17  1  0  0  0  0
 16 34  1  0  0  0  0
 17 18  2  0  0  0  0
 17 20  1  0  0  0  0
 18 12  1  0  0  0  0
 18 19  1  0  0  0  0
 19 35  1  0  0  0  0
 19 36  1  0  0  0  0
 19 37  1  0  0  0  0
 20 21  1  0  0  0  0
 21 22  1  0  0  0  0
 21 38  1  0  0  0  0
 21 39  1  0  0  0  0
 22 23  1  0  0  0  0
 22 24  1  0  0  0  0
 22 25  1  0  0  0  0
M  END
>  <Mol_ID>
216

>  <Formula>
C16H14F3N3O2S

>  <MolWeight>
369.3614696

>  <Cat>
S1354

>  <Name>
Lansoprazole

>  <Synonyms>
A-65006, AG-1749

>  <Target>
ATPase,Proton Pump

>  <Form>
free base

>  <CAS>
103577-45-3

>  <URL>
http://selleckchem.com/products/Lansoprazole.html

$$$$
