LAQ824.cdx
 OpenBabel08302521293D

 53 55  0  0  0  0  0  0  0  0999 V2000
   -1.8509   -2.4758   -3.1478 C   0  0  0  0  0  0  0  0  0  0  0  0
   -1.8368   -1.1059   -3.4102 C   0  0  0  0  0  0  0  0  0  0  0  0
   -2.1874   -0.1581   -2.4064 C   0  0  0  0  0  0  0  0  0  0  0  0
   -2.5638   -0.5483   -1.1040 C   0  0  0  0  0  0  0  0  0  0  0  0
   -2.5201   -1.9266   -0.8561 C   0  0  0  0  0  0  0  0  0  0  0  0
   -2.1919   -2.8749   -1.8545 C   0  0  0  0  0  0  0  0  0  0  0  0
   -2.7688    0.4849    0.0253 C   0  0  0  0  0  0  0  0  0  0  0  0
   -4.0033    0.4389    0.8734 N   0  0  0  0  0  0  0  0  0  0  0  0
   -5.0835    1.3559    0.4324 C   0  0  0  0  0  0  0  0  0  0  0  0
   -6.0637    2.1679    1.3364 C   0  0  0  0  0  0  0  0  0  0  0  0
   -7.2474    2.4767    0.5855 O   0  0  0  0  0  0  0  0  0  0  0  0
   -3.7123    0.3153    2.3120 C   0  0  0  0  0  0  0  0  0  0  0  0
   -4.8655    0.1034    3.3296 C   0  0  0  0  0  0  0  0  0  0  0  0
   -5.9807   -0.8157    2.8968 C   0  0  0  0  0  0  0  0  0  0  0  0
   -1.5927   -3.4957   -4.1797 C   0  0  0  0  0  0  0  0  0  0  0  0
   -0.3880   -3.9885   -4.5130 C   0  0  0  0  0  0  0  0  0  0  0  0
   -0.2695   -5.1002   -5.5129 C   0  0  0  0  0  0  0  0  0  0  0  0
    1.0207   -5.4890   -5.7384 N   0  0  0  0  0  0  0  0  0  0  0  0
    1.2047   -6.5991   -6.6223 O   0  0  0  0  0  0  0  0  0  0  0  0
   -1.2329   -5.6290   -6.0540 O   0  0  0  0  0  0  0  0  0  0  0  0
   -7.3432   -0.5892    3.0195 C   0  0  0  0  0  0  0  0  0  0  0  0
   -8.0158   -1.6655    2.5040 N   0  0  0  0  0  0  0  0  0  0  0  0
   -7.1259   -2.6152    2.0701 C   0  0  0  0  0  0  0  0  0  0  0  0
   -5.8499   -2.0874    2.2530 C   0  0  0  0  0  0  0  0  0  0  0  0
   -7.3471   -3.8827    1.5172 C   0  0  0  0  0  0  0  0  0  0  0  0
   -6.2356   -4.5961    1.0578 C   0  0  0  0  0  0  0  0  0  0  0  0
   -4.9563   -4.0701    1.1660 C   0  0  0  0  0  0  0  0  0  0  0  0
   -4.7565   -2.8440    1.7987 C   0  0  0  0  0  0  0  0  0  0  0  0
   -1.5577   -0.7443   -4.3994 H   0  0  0  0  0  0  0  0  0  0  0  0
   -2.1292    0.8981   -2.6599 H   0  0  0  0  0  0  0  0  0  0  0  0
   -2.7036   -2.2942    0.1413 H   0  0  0  0  0  0  0  0  0  0  0  0
   -2.2063   -3.9320   -1.5997 H   0  0  0  0  0  0  0  0  0  0  0  0
   -1.8863    0.3573    0.6688 H   0  0  0  0  0  0  0  0  0  0  0  0
   -2.6450    1.4930   -0.3900 H   0  0  0  0  0  0  0  0  0  0  0  0
   -4.6496    2.1337   -0.2071 H   0  0  0  0  0  0  0  0  0  0  0  0
   -5.7118    0.7568   -0.2353 H   0  0  0  0  0  0  0  0  0  0  0  0
   -6.4410    1.6553    2.2075 H   0  0  0  0  0  0  0  0  0  0  0  0
   -5.6139    3.1021    1.6926 H   0  0  0  0  0  0  0  0  0  0  0  0
   -7.4291    3.4251    0.6776 H   0  0  0  0  0  0  0  0  0  0  0  0
   -3.0542   -0.5555    2.4361 H   0  0  0  0  0  0  0  0  0  0  0  0
   -3.1046    1.1628    2.6558 H   0  0  0  0  0  0  0  0  0  0  0  0
   -4.4479   -0.2969    4.2634 H   0  0  0  0  0  0  0  0  0  0  0  0
   -5.2539    1.0831    3.6303 H   0  0  0  0  0  0  0  0  0  0  0  0
   -2.4880   -3.8984   -4.6558 H   0  0  0  0  0  0  0  0  0  0  0  0
    0.5306   -3.6311   -4.0538 H   0  0  0  0  0  0  0  0  0  0  0  0
    1.8496   -5.1318   -5.2935 H   0  0  0  0  0  0  0  0  0  0  0  0
    0.2842   -6.8334   -6.8608 H   0  0  0  0  0  0  0  0  0  0  0  0
   -7.8992    0.2622    3.3901 H   0  0  0  0  0  0  0  0  0  0  0  0
   -9.0202   -1.7435    2.4245 H   0  0  0  0  0  0  0  0  0  0  0  0
   -8.3452   -4.2959    1.4289 H   0  0  0  0  0  0  0  0  0  0  0  0
   -6.3723   -5.5725    0.6014 H   0  0  0  0  0  0  0  0  0  0  0  0
   -4.1029   -4.6082    0.7629 H   0  0  0  0  0  0  0  0  0  0  0  0
   -3.7536   -2.4587    1.9080 H   0  0  0  0  0  0  0  0  0  0  0  0
  1  2  2  0  0  0  0
  1 15  1  0  0  0  0
  2  3  1  0  0  0  0
  2 29  1  0  0  0  0
  3  4  2  0  0  0  0
  3 30  1  0  0  0  0
  4  5  1  0  0  0  0
  4  7  1  0  0  0  0
  5  6  2  0  0  0  0
  5 31  1  0  0  0  0
  6  1  1  0  0  0  0
  6 32  1  0  0  0  0
  7  8  1  0  0  0  0
  7 33  1  0  0  0  0
  7 34  1  0  0  0  0
  8  9  1  0  0  0  0
  8 12  1  0  0  0  0
  9 10  1  0  0  0  0
  9 35  1  0  0  0  0
  9 36  1  0  0  0  0
 10 11  1  0  0  0  0
 10 37  1  0  0  0  0
 10 38  1  0  0  0  0
 11 39  1  0  0  0  0
 12 13  1  0  0  0  0
 12 40  1  0  0  0  0
 12 41  1  0  0  0  0
 13 14  1  0  0  0  0
 13 42  1  0  0  0  0
 13 43  1  0  0  0  0
 14 21  2  0  0  0  0
 15 16  2  0  0  0  0
 15 44  1  0  0  0  0
 16 17  1  0  0  0  0
 16 45  1  0  0  0  0
 17 18  1  0  0  0  0
 17 20  2  0  0  0  0
 18 19  1  0  0  0  0
 18 46  1  0  0  0  0
 19 47  1  0  0  0  0
 21 22  1  0  0  0  0
 21 48  1  0  0  0  0
 22 23  1  0  0  0  0
 22 49  1  0  0  0  0
 23 24  2  0  0  0  0
 23 25  1  0  0  0  0
 24 14  1  0  0  0  0
 25 26  2  0  0  0  0
 25 50  1  0  0  0  0
 26 27  1  0  0  0  0
 26 51  1  0  0  0  0
 27 28  2  0  0  0  0
 27 52  1  0  0  0  0
 28 24  1  0  0  0  0
 28 53  1  0  0  0  0
M  END
>  <Mol_ID>
58

>  <Formula>
C22H25N3O3

>  <MolWeight>
379.4522

>  <Cat>
S1095

>  <Name>
Dacinostat (LAQ824)

>  <Synonyms>
NVP-LAQ824

>  <Target>
HDAC,p21

>  <Form>
free base

>  <CAS>
404951-53-7

>  <URL>
http://selleckchem.com/products/LAQ824(NVP-LAQ824).html

$$$$
