Lathyrol
 OpenBabel08302519513D

 54 56  0  0  0  0  0  0  0  0999 V2000
    1.0614    2.2123    0.0137 C   0  0  1  0  0  0  0  0  0  0  0  0
   -2.2676    4.0518   -0.3473 C   0  0  1  0  0  0  0  0  0  0  0  0
    1.6419    3.7352   -0.1335 C   0  0  3  0  0  0  0  0  0  0  0  0
   -3.3256    4.9795    0.1426 C   0  0  0  0  0  0  0  0  0  0  0  0
   -1.8641    5.3249    0.3439 C   0  0  3  0  0  0  0  0  0  0  0  0
   -1.8214    2.8011    0.2361 C   0  0  0  0  0  0  0  0  0  0  0  0
   -0.1663    1.2861   -0.4358 C   0  0  0  0  0  0  0  0  0  0  0  0
   -1.5252    1.7987   -0.5746 C   0  0  0  0  0  0  0  0  0  0  0  0
    2.1843    1.5389   -0.8918 C   0  0  0  0  0  0  0  0  0  0  0  0
    1.4454    5.3583   -0.2197 C   0  0  3  0  0  0  0  0  0  0  0  0
    3.1312    3.4447    0.2737 C   0  0  3  0  0  0  0  0  0  0  0  0
    0.6430    6.4829    0.4154 C   0  0  0  0  0  0  0  0  0  0  0  0
    3.4764    2.3345   -0.7088 C   0  0  3  0  0  0  0  0  0  0  0  0
   -1.1029    5.2931    1.6690 C   0  0  0  0  0  0  0  0  0  0  0  0
   -0.0046    0.0587   -0.5840 O   0  0  0  0  0  0  0  0  0  0  0  0
   -0.0232    6.3553    1.7457 C   0  0  0  0  0  0  0  0  0  0  0  0
    1.2242    1.7499    1.3814 O   0  0  0  0  0  0  0  0  0  0  0  0
    0.4863    7.6487   -0.2628 C   0  0  0  0  0  0  0  0  0  0  0  0
   -4.1423    4.7184    1.3629 C   0  0  0  0  0  0  0  0  0  0  0  0
   -4.0185    5.7572   -0.9585 C   0  0  0  0  0  0  0  0  0  0  0  0
    2.7687    5.9725   -0.2495 O   0  0  0  0  0  0  0  0  0  0  0  0
    3.3114    3.0683    1.6381 O   0  0  0  0  0  0  0  0  0  0  0  0
   -2.3758    1.3158   -1.7047 C   0  0  0  0  0  0  0  0  0  0  0  0
    4.6566    1.4699   -0.3474 C   0  0  0  0  0  0  0  0  0  0  0  0
   -2.0683    4.0723   -1.4193 H   0  0  0  0  0  0  0  0  0  0  0  0
    1.5880    3.6922   -1.2339 H   0  0  0  0  0  0  0  0  0  0  0  0
   -1.5288    6.1133   -0.3181 H   0  0  0  0  0  0  0  0  0  0  0  0
   -1.3131    2.8216    1.1925 H   0  0  0  0  0  0  0  0  0  0  0  0
    2.3333    0.4715   -0.7138 H   0  0  0  0  0  0  0  0  0  0  0  0
    1.8689    1.6428   -1.9456 H   0  0  0  0  0  0  0  0  0  0  0  0
    1.1411    5.4709   -1.2745 H   0  0  0  0  0  0  0  0  0  0  0  0
    3.8543    4.2404    0.1196 H   0  0  0  0  0  0  0  0  0  0  0  0
    3.7000    2.8275   -1.6679 H   0  0  0  0  0  0  0  0  0  0  0  0
   -0.5420    4.3687    1.8100 H   0  0  0  0  0  0  0  0  0  0  0  0
   -1.7744    5.3804    2.5259 H   0  0  0  0  0  0  0  0  0  0  0  0
   -0.4914    7.3034    2.0438 H   0  0  0  0  0  0  0  0  0  0  0  0
    0.7183    6.1251    2.5197 H   0  0  0  0  0  0  0  0  0  0  0  0
    1.3871    0.7833    1.3178 H   0  0  0  0  0  0  0  0  0  0  0  0
   -0.1067    8.4748    0.1226 H   0  0  0  0  0  0  0  0  0  0  0  0
    0.9222    7.8002   -1.2489 H   0  0  0  0  0  0  0  0  0  0  0  0
   -5.1683    4.4550    1.0996 H   0  0  0  0  0  0  0  0  0  0  0  0
   -4.1737    5.6217    1.9885 H   0  0  0  0  0  0  0  0  0  0  0  0
   -3.7387    3.9060    1.9756 H   0  0  0  0  0  0  0  0  0  0  0  0
   -5.0382    5.4019   -1.1104 H   0  0  0  0  0  0  0  0  0  0  0  0
   -4.0267    6.8265   -0.7301 H   0  0  0  0  0  0  0  0  0  0  0  0
   -3.4944    5.6424   -1.9185 H   0  0  0  0  0  0  0  0  0  0  0  0
    2.8332    6.6041    0.4916 H   0  0  0  0  0  0  0  0  0  0  0  0
    2.4320    2.9463    2.0491 H   0  0  0  0  0  0  0  0  0  0  0  0
   -3.3825    1.7520   -1.6549 H   0  0  0  0  0  0  0  0  0  0  0  0
   -2.5162    0.2302   -1.6551 H   0  0  0  0  0  0  0  0  0  0  0  0
   -1.9320    1.5752   -2.6682 H   0  0  0  0  0  0  0  0  0  0  0  0
    5.5020    2.0872   -0.0332 H   0  0  0  0  0  0  0  0  0  0  0  0
    4.4081    0.7693    0.4539 H   0  0  0  0  0  0  0  0  0  0  0  0
    4.9625    0.8917   -1.2258 H   0  0  0  0  0  0  0  0  0  0  0  0
  1 17  1  1  0  0  0
  2  6  1  0  0  0  0
  2  4  1  0  0  0  0
  2 25  1  6  0  0  0
  3  1  1  0  0  0  0
  3 10  1  0  0  0  0
  3 26  1  0  0  0  0
  5  2  1  0  0  0  0
  5  4  1  0  0  0  0
  5 14  1  0  0  0  0
  5 27  1  0  0  0  0
  6  8  2  0  0  0  0
  6 28  1  0  0  0  0
  7  1  1  0  0  0  0
  8  7  1  0  0  0  0
  9  1  1  0  0  0  0
  9 29  1  0  0  0  0
  9 30  1  0  0  0  0
 10 21  1  0  0  0  0
 10 31  1  0  0  0  0
 11  3  1  0  0  0  0
 11 22  1  0  0  0  0
 11 13  1  0  0  0  0
 11 32  1  0  0  0  0
 12 10  1  0  0  0  0
 13  9  1  0  0  0  0
 13 24  1  0  0  0  0
 13 33  1  0  0  0  0
 14 16  1  0  0  0  0
 14 34  1  0  0  0  0
 14 35  1  0  0  0  0
 15  7  2  0  0  0  0
 16 12  1  0  0  0  0
 16 36  1  0  0  0  0
 16 37  1  0  0  0  0
 17 38  1  0  0  0  0
 18 12  2  0  0  0  0
 18 39  1  0  0  0  0
 18 40  1  0  0  0  0
 19  4  1  0  0  0  0
 19 41  1  0  0  0  0
 19 42  1  0  0  0  0
 19 43  1  0  0  0  0
 20  4  1  0  0  0  0
 20 44  1  0  0  0  0
 20 45  1  0  0  0  0
 20 46  1  0  0  0  0
 21 47  1  0  0  0  0
 22 48  1  0  0  0  0
 23  8  1  0  0  0  0
 23 49  1  0  0  0  0
 23 50  1  0  0  0  0
 23 51  1  0  0  0  0
 24 52  1  0  0  0  0
 24 53  1  0  0  0  0
 24 54  1  0  0  0  0
M  END
>  <Mol_ID>
1865

>  <Formula>
C20H30O4

>  <MolWeight>
334.4498

>  <Cat>
S3921

>  <Name>
Lathyrol

>  <Synonyms>
N/A

>  <Target>
Others

>  <Form>
free base

>  <CAS>
34420-19-4

>  <URL>
http://selleckchem.com/products/lathyrol.html

$$$$
