Lazabemide
 OpenBabel08302520403D

 23 23  0  0  0  0  0  0  0  0999 V2000
   -0.7070    1.2008   -0.0376 C   0  0  0  0  0  0  0  0  0  0  0  0
   -1.4830    2.4826   -0.0727 C   0  0  0  0  0  0  0  0  0  0  0  0
    0.6826    1.2508   -0.0334 C   0  0  0  0  0  0  0  0  0  0  0  0
   -1.4250    0.0418   -0.0188 N   0  0  0  0  0  0  0  0  0  0  0  0
   -2.8527    2.3477    0.0018 N   0  0  0  0  0  0  0  0  0  0  0  0
   -0.9161    3.5659   -0.1685 O   0  0  0  0  0  0  0  0  0  0  0  0
    1.3864    0.0514   -0.0138 C   0  0  0  0  0  0  0  0  0  0  0  0
   -0.7042   -1.1024    0.0021 C   0  0  0  0  0  0  0  0  0  0  0  0
   -3.7445    3.4912   -0.0493 C   0  0  0  0  0  0  0  0  0  0  0  0
    0.6828   -1.1488    0.0028 C   0  0  0  0  0  0  0  0  0  0  0  0
   -4.0739    3.9202   -1.4867 C   0  0  0  0  0  0  0  0  0  0  0  0
   -4.7742    2.8620   -2.2241 N   0  0  0  0  0  0  0  0  0  0  0  0
    1.2031    2.2034   -0.0453 H   0  0  0  0  0  0  0  0  0  0  0  0
   -3.2305    1.4042    0.0248 H   0  0  0  0  0  0  0  0  0  0  0  0
    2.4729    0.0555   -0.0128 H   0  0  0  0  0  0  0  0  0  0  0  0
   -1.2867   -2.0202    0.0184 H   0  0  0  0  0  0  0  0  0  0  0  0
   -4.6565    3.2225    0.4937 H   0  0  0  0  0  0  0  0  0  0  0  0
   -3.2729    4.3293    0.4764 H   0  0  0  0  0  0  0  0  0  0  0  0
    1.2065   -2.0995    0.0163 H   0  0  0  0  0  0  0  0  0  0  0  0
   -4.7071    4.8133   -1.4630 H   0  0  0  0  0  0  0  0  0  0  0  0
   -3.1548    4.1776   -2.0252 H   0  0  0  0  0  0  0  0  0  0  0  0
   -4.9062    3.1656   -3.1880 H   0  0  0  0  0  0  0  0  0  0  0  0
   -4.1609    2.0477   -2.2662 H   0  0  0  0  0  0  0  0  0  0  0  0
  1  2  1  0  0  0  0
  1  3  2  0  0  0  0
  1  4  1  0  0  0  0
  2  5  1  0  0  0  0
  2  6  2  0  0  0  0
  3  7  1  0  0  0  0
  3 13  1  0  0  0  0
  4  8  2  0  0  0  0
  5  9  1  0  0  0  0
  5 14  1  0  0  0  0
  7 10  2  0  0  0  0
  7 15  1  0  0  0  0
  8 10  1  0  0  0  0
  8 16  1  0  0  0  0
  9 11  1  0  0  0  0
  9 17  1  0  0  0  0
  9 18  1  0  0  0  0
 10 19  1  0  0  0  0
 11 12  1  0  0  0  0
 11 20  1  0  0  0  0
 11 21  1  0  0  0  0
 12 22  1  0  0  0  0
 12 23  1  0  0  0  0
M  END
>  <Mol_ID>
3742

>  <Formula>
C8H11Cl2N3O

>  <MolWeight>
236.09844

>  <Cat>
S6422

>  <Name>
Lazabemide

>  <Synonyms>
Ro 19-6327

>  <Target>
MAO

>  <Form>
Free Base

>  <CAS>
103878-83-7

>  <URL>
http://www.selleck.cn/products/lazabemide.html

$$$$
