LDC4297 (LDC044297).cdx
 OpenBabel08302520003D

 60 64  0  0  0  0  0  0  0  0999 V2000
   -0.7319    1.3397   -0.0689 C   0  0  0  0  0  0  0  0  0  0  0  0
   -1.8889    0.7242   -0.1055 N   0  0  0  0  0  0  0  0  0  0  0  0
   -1.8947   -0.6476   -0.2712 C   0  0  0  0  0  0  0  0  0  0  0  0
   -0.8493   -1.4198   -0.3279 N   0  0  0  0  0  0  0  0  0  0  0  0
    0.3608   -0.8173   -0.1802 C   0  0  0  0  0  0  0  0  0  0  0  0
    0.4392    0.5517   -0.1034 N   0  0  0  0  0  0  0  0  0  0  0  0
    1.6592   -1.2755   -0.0420 C   0  0  0  0  0  0  0  0  0  0  0  0
    2.4320   -0.0919    0.0828 C   0  0  0  0  0  0  0  0  0  0  0  0
    1.6954    1.0195    0.0571 N   0  0  0  0  0  0  0  0  0  0  0  0
   -0.6884    2.7119    0.0711 N   0  0  0  0  0  0  0  0  0  0  0  0
    0.2507    3.6180   -0.5980 C   0  0  0  0  0  0  0  0  0  0  0  0
    1.6300    5.9511   -2.0290 N   0  0  0  0  0  0  0  0  0  0  0  0
   -0.4121    4.5189   -1.6478 C   0  0  0  0  0  0  0  0  0  0  0  0
   -1.7501    4.2613   -2.0366 C   0  0  0  0  0  0  0  0  0  0  0  0
   -2.4241    5.0556   -2.9637 C   0  0  0  0  0  0  0  0  0  0  0  0
   -1.7719    6.1181   -3.5621 C   0  0  0  0  0  0  0  0  0  0  0  0
   -0.4435    6.3856   -3.2359 C   0  0  0  0  0  0  0  0  0  0  0  0
    0.2591    5.6064   -2.2868 C   0  0  0  0  0  0  0  0  0  0  0  0
   -3.1191   -1.2175   -0.4192 O   0  0  0  0  0  0  0  0  0  0  0  0
   -4.2930   -0.5859    0.1515 C   0  0  3  0  0  0  0  0  0  0  0  0
   -5.3103   -1.6841    0.4989 C   0  0  0  0  0  0  0  0  0  0  0  0
   -5.9369   -2.2917   -0.7548 C   0  0  0  0  0  0  0  0  0  0  0  0
   -6.5284   -1.2170   -1.6643 C   0  0  0  0  0  0  0  0  0  0  0  0
   -5.5693   -0.1652   -2.0062 N   0  0  0  0  0  0  0  0  0  0  0  0
   -4.9404    0.4274   -0.8135 C   0  0  0  0  0  0  0  0  0  0  0  0
    2.4074    5.2373   -1.1739 N   0  0  0  0  0  0  0  0  0  0  0  0
    3.5987    5.8265   -1.2025 C   0  0  0  0  0  0  0  0  0  0  0  0
    3.6358    6.9318   -2.0562 C   0  0  0  0  0  0  0  0  0  0  0  0
    2.3639    6.9957   -2.5736 C   0  0  0  0  0  0  0  0  0  0  0  0
    2.1482   -2.6919   -0.0180 C   0  0  0  0  0  0  0  0  0  0  0  0
    3.1274   -2.9594   -1.1637 C   0  0  0  0  0  0  0  0  0  0  0  0
    2.7902   -3.0454    1.3281 C   0  0  0  0  0  0  0  0  0  0  0  0
    3.5057   -0.0037    0.2032 H   0  0  0  0  0  0  0  0  0  0  0  0
   -1.5767    3.1379    0.2945 H   0  0  0  0  0  0  0  0  0  0  0  0
    0.6585    4.2501    0.1971 H   0  0  0  0  0  0  0  0  0  0  0  0
    1.0546    3.0694   -1.0937 H   0  0  0  0  0  0  0  0  0  0  0  0
   -2.3063    3.4208   -1.6279 H   0  0  0  0  0  0  0  0  0  0  0  0
   -3.4570    4.8324   -3.2188 H   0  0  0  0  0  0  0  0  0  0  0  0
   -2.2903    6.7336   -4.2931 H   0  0  0  0  0  0  0  0  0  0  0  0
    0.0162    7.2186   -3.7589 H   0  0  0  0  0  0  0  0  0  0  0  0
   -4.0035   -0.0878    1.0840 H   0  0  0  0  0  0  0  0  0  0  0  0
   -4.8325   -2.4808    1.0807 H   0  0  0  0  0  0  0  0  0  0  0  0
   -6.1067   -1.2542    1.1195 H   0  0  0  0  0  0  0  0  0  0  0  0
   -5.1844   -2.8712   -1.3049 H   0  0  0  0  0  0  0  0  0  0  0  0
   -6.7259   -2.9955   -0.4639 H   0  0  0  0  0  0  0  0  0  0  0  0
   -6.8732   -1.6865   -2.5934 H   0  0  0  0  0  0  0  0  0  0  0  0
   -7.4169   -0.7754   -1.1972 H   0  0  0  0  0  0  0  0  0  0  0  0
   -4.8336   -0.5684   -2.5870 H   0  0  0  0  0  0  0  0  0  0  0  0
   -5.6981    1.0024   -0.2668 H   0  0  0  0  0  0  0  0  0  0  0  0
   -4.1957    1.1461   -1.1666 H   0  0  0  0  0  0  0  0  0  0  0  0
    4.3981    5.4210   -0.5898 H   0  0  0  0  0  0  0  0  0  0  0  0
    4.4631    7.5932   -2.2678 H   0  0  0  0  0  0  0  0  0  0  0  0
    1.9431    7.6972   -3.2748 H   0  0  0  0  0  0  0  0  0  0  0  0
    1.2890   -3.3605   -0.1553 H   0  0  0  0  0  0  0  0  0  0  0  0
    4.0299   -2.3435   -1.0769 H   0  0  0  0  0  0  0  0  0  0  0  0
    3.4372   -4.0094   -1.1755 H   0  0  0  0  0  0  0  0  0  0  0  0
    2.6638   -2.7327   -2.1303 H   0  0  0  0  0  0  0  0  0  0  0  0
    2.0834   -2.8915    2.1516 H   0  0  0  0  0  0  0  0  0  0  0  0
    3.1027   -4.0950    1.3473 H   0  0  0  0  0  0  0  0  0  0  0  0
    3.6740   -2.4298    1.5324 H   0  0  0  0  0  0  0  0  0  0  0  0
  1  2  2  0  0  0  0
  1 10  1  0  0  0  0
  2  3  1  0  0  0  0
  3  4  2  0  0  0  0
  3 19  1  0  0  0  0
  4  5  1  0  0  0  0
  5  6  1  0  0  0  0
  5  7  2  0  0  0  0
  6  1  1  0  0  0  0
  7  8  1  0  0  0  0
  7 30  1  0  0  0  0
  8  9  2  0  0  0  0
  8 33  1  0  0  0  0
  9  6  1  0  0  0  0
 10 11  1  0  0  0  0
 10 34  1  0  0  0  0
 11 13  1  0  0  0  0
 11 35  1  0  0  0  0
 11 36  1  0  0  0  0
 12 26  1  0  0  0  0
 12 18  1  0  0  0  0
 13 14  2  0  0  0  0
 14 15  1  0  0  0  0
 14 37  1  0  0  0  0
 15 16  2  0  0  0  0
 15 38  1  0  0  0  0
 16 17  1  0  0  0  0
 16 39  1  0  0  0  0
 17 18  2  0  0  0  0
 17 40  1  0  0  0  0
 18 13  1  0  0  0  0
 19 20  1  0  0  0  0
 20 21  1  0  0  0  0
 20 41  1  0  0  0  0
 21 22  1  0  0  0  0
 21 42  1  0  0  0  0
 21 43  1  0  0  0  0
 22 23  1  0  0  0  0
 22 44  1  0  0  0  0
 22 45  1  0  0  0  0
 23 24  1  0  0  0  0
 23 46  1  0  0  0  0
 23 47  1  0  0  0  0
 24 25  1  0  0  0  0
 24 48  1  0  0  0  0
 25 20  1  0  0  0  0
 25 49  1  0  0  0  0
 25 50  1  0  0  0  0
 26 27  2  0  0  0  0
 27 28  1  0  0  0  0
 27 51  1  0  0  0  0
 28 29  2  0  0  0  0
 28 52  1  0  0  0  0
 29 12  1  0  0  0  0
 29 53  1  0  0  0  0
 30 31  1  0  0  0  0
 30 32  1  0  0  0  0
 30 54  1  0  0  0  0
 31 55  1  0  0  0  0
 31 56  1  0  0  0  0
 31 57  1  0  0  0  0
 32 58  1  0  0  0  0
 32 59  1  0  0  0  0
 32 60  1  0  0  0  0
M  END
>  <Mol_ID>
2730

>  <Formula>
C23H28N8O

>  <MolWeight>
432.52142

>  <Cat>
S7992

>  <Name>
LDC4297 (LDC044297)

>  <Synonyms>
N/A

>  <Target>
CDK

>  <Form>
free base

>  <CAS>
1453834-21-3

>  <URL>
http://selleckchem.com/products/ldc4297-ldc044297.html

$$$$
