LDN-212854.cdx
 OpenBabel08302519583D

 53 58  0  0  0  0  0  0  0  0999 V2000
   -2.0675    0.9289   -0.1009 C   0  0  0  0  0  0  0  0  0  0  0  0
   -2.0603   -0.5442   -0.0222 C   0  0  0  0  0  0  0  0  0  0  0  0
   -1.0193   -1.3206    0.0119 N   0  0  0  0  0  0  0  0  0  0  0  0
    0.2023   -0.6872   -0.0215 C   0  0  0  0  0  0  0  0  0  0  0  0
    0.2821    0.7126   -0.1156 N   0  0  0  0  0  0  0  0  0  0  0  0
   -0.8506    1.4992   -0.1376 C   0  0  0  0  0  0  0  0  0  0  0  0
    1.4965   -1.1379    0.0254 C   0  0  0  0  0  0  0  0  0  0  0  0
    2.2877    0.0350   -0.0376 C   0  0  0  0  0  0  0  0  0  0  0  0
    1.5706    1.1490   -0.1540 N   0  0  0  0  0  0  0  0  0  0  0  0
   -3.2888    1.7206   -0.0818 C   0  0  0  0  0  0  0  0  0  0  0  0
    1.9225   -2.5261    0.2060 C   0  0  0  0  0  0  0  0  0  0  0  0
    1.1609   -3.3883    1.0068 C   0  0  0  0  0  0  0  0  0  0  0  0
    1.5893   -4.6868    1.2606 C   0  0  0  0  0  0  0  0  0  0  0  0
    2.8483   -5.0910    0.8262 C   0  0  0  0  0  0  0  0  0  0  0  0
    3.6505   -4.2517    0.0690 C   0  0  0  0  0  0  0  0  0  0  0  0
    3.1337   -3.0118   -0.3586 C   0  0  0  0  0  0  0  0  0  0  0  0
    4.9148   -4.6165   -0.2035 N   0  0  0  0  0  0  0  0  0  0  0  0
    5.5875   -3.8522   -1.0750 C   0  0  0  0  0  0  0  0  0  0  0  0
    4.9321   -3.0385   -1.9603 C   0  0  0  0  0  0  0  0  0  0  0  0
    3.8678   -2.3708   -1.3792 C   0  0  0  0  0  0  0  0  0  0  0  0
   -3.9214    2.1071   -1.2681 C   0  0  0  0  0  0  0  0  0  0  0  0
   -5.0743    2.8936   -1.2323 C   0  0  0  0  0  0  0  0  0  0  0  0
   -5.6330    3.3265   -0.0215 C   0  0  0  0  0  0  0  0  0  0  0  0
   -4.9912    2.9060    1.1561 C   0  0  0  0  0  0  0  0  0  0  0  0
   -3.8352    2.1222    1.1371 C   0  0  0  0  0  0  0  0  0  0  0  0
   -6.7475    4.1372    0.0453 N   0  0  0  0  0  0  0  0  0  0  0  0
   -7.8204    4.1463   -0.9600 C   0  0  0  0  0  0  0  0  0  0  0  0
   -8.0129    5.5545   -1.5687 C   0  0  0  0  0  0  0  0  0  0  0  0
   -8.1496    6.6340   -0.5653 N   0  0  0  0  0  0  0  0  0  0  0  0
   -6.9770    6.5858    0.3325 C   0  0  0  0  0  0  0  0  0  0  0  0
   -6.8015    5.2238    1.0361 C   0  0  0  0  0  0  0  0  0  0  0  0
   -3.0731   -1.0327    0.0045 H   0  0  0  0  0  0  0  0  0  0  0  0
   -0.6822    2.5770   -0.1782 H   0  0  0  0  0  0  0  0  0  0  0  0
    3.3685    0.1219   -0.0119 H   0  0  0  0  0  0  0  0  0  0  0  0
    0.2234   -3.0561    1.4469 H   0  0  0  0  0  0  0  0  0  0  0  0
    0.9650   -5.3647    1.8353 H   0  0  0  0  0  0  0  0  0  0  0  0
    3.2139   -6.0840    1.0777 H   0  0  0  0  0  0  0  0  0  0  0  0
    6.6176   -3.6211   -0.8031 H   0  0  0  0  0  0  0  0  0  0  0  0
    4.5365   -3.6421   -2.8136 H   0  0  0  0  0  0  0  0  0  0  0  0
    3.5283   -1.4548   -1.8525 H   0  0  0  0  0  0  0  0  0  0  0  0
   -3.4973    1.8204   -2.2314 H   0  0  0  0  0  0  0  0  0  0  0  0
   -5.5104    3.1968   -2.1798 H   0  0  0  0  0  0  0  0  0  0  0  0
   -5.4057    3.1719    2.1250 H   0  0  0  0  0  0  0  0  0  0  0  0
   -3.3730    1.8406    2.0792 H   0  0  0  0  0  0  0  0  0  0  0  0
   -7.6644    3.4159   -1.7609 H   0  0  0  0  0  0  0  0  0  0  0  0
   -8.7506    3.8503   -0.4581 H   0  0  0  0  0  0  0  0  0  0  0  0
   -7.1700    5.7902   -2.2299 H   0  0  0  0  0  0  0  0  0  0  0  0
   -8.9129    5.5543   -2.1938 H   0  0  0  0  0  0  0  0  0  0  0  0
   -8.9792    6.4401   -0.0045 H   0  0  0  0  0  0  0  0  0  0  0  0
   -6.0742    6.8218   -0.2450 H   0  0  0  0  0  0  0  0  0  0  0  0
   -7.0798    7.3699    1.0904 H   0  0  0  0  0  0  0  0  0  0  0  0
   -7.6396    5.0388    1.7183 H   0  0  0  0  0  0  0  0  0  0  0  0
   -5.8926    5.2877    1.6459 H   0  0  0  0  0  0  0  0  0  0  0  0
  1  2  1  0  0  0  0
  1 10  1  0  0  0  0
  2  3  2  0  0  0  0
  2 32  1  0  0  0  0
  3  4  1  0  0  0  0
  4  5  1  0  0  0  0
  4  7  2  0  0  0  0
  5  6  1  0  0  0  0
  6  1  2  0  0  0  0
  6 33  1  0  0  0  0
  7  8  1  0  0  0  0
  7 11  1  0  0  0  0
  8  9  2  0  0  0  0
  8 34  1  0  0  0  0
  9  5  1  0  0  0  0
 10 21  2  0  0  0  0
 11 12  2  0  0  0  0
 12 13  1  0  0  0  0
 12 35  1  0  0  0  0
 13 14  2  0  0  0  0
 13 36  1  0  0  0  0
 14 15  1  0  0  0  0
 14 37  1  0  0  0  0
 15 16  2  0  0  0  0
 15 17  1  0  0  0  0
 16 11  1  0  0  0  0
 17 18  2  0  0  0  0
 18 19  1  0  0  0  0
 18 38  1  0  0  0  0
 19 20  2  0  0  0  0
 19 39  1  0  0  0  0
 20 16  1  0  0  0  0
 20 40  1  0  0  0  0
 21 22  1  0  0  0  0
 21 41  1  0  0  0  0
 22 23  2  0  0  0  0
 22 42  1  0  0  0  0
 23 24  1  0  0  0  0
 23 26  1  0  0  0  0
 24 25  2  0  0  0  0
 24 43  1  0  0  0  0
 25 10  1  0  0  0  0
 25 44  1  0  0  0  0
 26 27  1  0  0  0  0
 27 28  1  0  0  0  0
 27 45  1  0  0  0  0
 27 46  1  0  0  0  0
 28 29  1  0  0  0  0
 28 47  1  0  0  0  0
 28 48  1  0  0  0  0
 29 30  1  0  0  0  0
 29 49  1  0  0  0  0
 30 31  1  0  0  0  0
 30 50  1  0  0  0  0
 30 51  1  0  0  0  0
 31 26  1  0  0  0  0
 31 52  1  0  0  0  0
 31 53  1  0  0  0  0
M  END
>  <Mol_ID>
2389

>  <Formula>
C25H22N6

>  <MolWeight>
406.48238

>  <Cat>
S7147

>  <Name>
LDN-212854

>  <Synonyms>
BMP Inhibitor III

>  <Target>
TGF-beta/Smad

>  <Form>
free base

>  <CAS>
1432597-26-6

>  <URL>
http://selleckchem.com/products/ldn-212854.html

$$$$
