Levetiracetam.cdx
 OpenBabel08302519553D

 26 26  0  0  0  0  0  0  0  0999 V2000
   -1.4981   -3.7073    1.4146 C   0  0  0  0  0  0  0  0  0  0  0  0
   -0.2328   -3.1882    1.1900 N   0  0  0  0  0  0  0  0  0  0  0  0
    0.5333   -3.1322    2.4123 C   0  0  0  0  0  0  0  0  0  0  0  0
   -0.1069   -4.2068    3.2701 C   0  0  0  0  0  0  0  0  0  0  0  0
   -1.5670   -4.1891    2.8403 C   0  0  0  0  0  0  0  0  0  0  0  0
    0.1615   -2.4185    0.0011 C   0  0  2  0  0  0  0  0  0  0  0  0
   -0.5524   -1.0514   -0.0193 C   0  0  0  0  0  0  0  0  0  0  0  0
   -1.9096   -1.0817   -0.1955 N   0  0  0  0  0  0  0  0  0  0  0  0
    0.0421    0.0181    0.0911 O   0  0  0  0  0  0  0  0  0  0  0  0
   -0.0606   -3.1572   -1.3290 C   0  0  0  0  0  0  0  0  0  0  0  0
    0.7078   -4.4660   -1.4300 C   0  0  0  0  0  0  0  0  0  0  0  0
   -2.4385   -3.6944    0.6347 O   0  0  0  0  0  0  0  0  0  0  0  0
    0.4196   -2.1378    2.8567 H   0  0  0  0  0  0  0  0  0  0  0  0
    1.5901   -3.3380    2.2194 H   0  0  0  0  0  0  0  0  0  0  0  0
    0.0230   -4.0334    4.3420 H   0  0  0  0  0  0  0  0  0  0  0  0
    0.3296   -5.1847    3.0316 H   0  0  0  0  0  0  0  0  0  0  0  0
   -2.1477   -3.4703    3.4266 H   0  0  0  0  0  0  0  0  0  0  0  0
   -2.0219   -5.1808    2.8941 H   0  0  0  0  0  0  0  0  0  0  0  0
    1.2361   -2.2121    0.0970 H   0  0  0  0  0  0  0  0  0  0  0  0
   -2.4238   -0.2153   -0.1527 H   0  0  0  0  0  0  0  0  0  0  0  0
   -2.4238   -1.9605   -0.1024 H   0  0  0  0  0  0  0  0  0  0  0  0
   -1.1228   -3.3630   -1.4985 H   0  0  0  0  0  0  0  0  0  0  0  0
    0.2531   -2.5032   -2.1530 H   0  0  0  0  0  0  0  0  0  0  0  0
    0.3818   -5.1811   -0.6689 H   0  0  0  0  0  0  0  0  0  0  0  0
    0.5350   -4.9218   -2.4106 H   0  0  0  0  0  0  0  0  0  0  0  0
    1.7840   -4.3033   -1.3177 H   0  0  0  0  0  0  0  0  0  0  0  0
  1  2  1  0  0  0  0
  1 12  2  0  0  0  0
  2  3  1  0  0  0  0
  3  4  1  0  0  0  0
  3 13  1  0  0  0  0
  3 14  1  0  0  0  0
  4  5  1  0  0  0  0
  4 15  1  0  0  0  0
  4 16  1  0  0  0  0
  5  1  1  0  0  0  0
  5 17  1  0  0  0  0
  5 18  1  0  0  0  0
  6 10  1  0  0  0  0
  6 19  1  1  0  0  0
  6  7  1  0  0  0  0
  6  2  1  0  0  0  0
  7  8  1  0  0  0  0
  7  9  2  0  0  0  0
  8 20  1  0  0  0  0
  8 21  1  0  0  0  0
 10 11  1  0  0  0  0
 10 22  1  0  0  0  0
 10 23  1  0  0  0  0
 11 24  1  0  0  0  0
 11 25  1  0  0  0  0
 11 26  1  0  0  0  0
M  END
>  <Mol_ID>
217

>  <Formula>
C8H14N2O2

>  <MolWeight>
170.20896

>  <Cat>
S1356

>  <Name>
Levetiracetam (UCB-L059)

>  <Synonyms>
UCB-L059, SIB-S1

>  <Target>
AChR,Calcium Channel

>  <Form>
free base

>  <CAS>
102767-28-2

>  <URL>
http://selleckchem.com/products/Levetiracetam.html

$$$$
