Levonorgestrel.cdx
 OpenBabel08302521232D

 51 54  0  0  0  0  0  0  0  0999 V2000
    1.2082    2.1000    0.0000 C   0  0  0  0  0  0  0  0  0  0  0  0
    1.2082    0.7000    0.0000 C   0  0  0  0  0  0  0  0  0  0  0  0
    2.4207    0.0000    0.0000 C   0  0  0  0  0  0  0  0  0  0  0  0
    3.6331    0.7000    0.0000 C   0  0  0  0  0  0  0  0  0  0  0  0
    3.6331    2.1000    0.0000 C   0  0  2  0  0  0  0  0  0  0  0  0
    2.4207    2.8000    0.0000 C   0  0  0  0  0  0  0  0  0  0  0  0
    4.8455    0.0000    0.0000 C   0  0  0  0  0  0  0  0  0  0  0  0
    6.0580    0.7000    0.0000 C   0  0  0  0  0  0  0  0  0  0  0  0
    6.0580    2.1000    0.0000 C   0  0  2  0  0  0  0  0  0  0  0  0
    4.8455    2.8000    0.0000 C   0  0  2  0  0  0  0  0  0  0  0  0
    7.2704    2.8000    0.0000 C   0  0  1  0  0  0  0  0  0  0  0  0
    7.2704    4.2000    0.0000 C   0  0  2  0  0  0  0  0  0  0  0  0
    6.0580    4.9000    0.0000 C   0  0  0  0  0  0  0  0  0  0  0  0
    4.8455    4.2000    0.0000 C   0  0  0  0  0  0  0  0  0  0  0  0
    8.6019    2.3674    0.0000 C   0  0  0  0  0  0  0  0  0  0  0  0
    9.4248    3.5000    0.0000 C   0  0  0  0  0  0  0  0  0  0  0  0
    8.6019    4.6326    0.0000 C   0  0  2  0  0  0  0  0  0  0  0  0
    0.0000    0.0024    0.0000 O   0  0  0  0  0  0  0  0  0  0  0  0
    7.4162    5.5875    0.0000 C   0  0  0  0  0  0  0  0  0  0  0  0
    8.6019    6.0326    0.0000 O   0  0  0  0  0  0  0  0  0  0  0  0
    9.9542    4.9950    0.0000 C   0  0  0  0  0  0  0  0  0  0  0  0
   11.3065    5.3573    0.0000 C   0  0  0  0  0  0  0  0  0  0  0  0
    6.4263    6.5774    0.0000 C   0  0  0  0  0  0  0  0  0  0  0  0
    0.2816    2.6350    0.0000 H   0  0  0  0  0  0  0  0  0  0  0  0
    1.2082    3.1700    0.0000 H   0  0  0  0  0  0  0  0  0  0  0  0
    2.4207   -1.0320    0.0000 H   0  0  0  0  0  0  0  0  0  0  0  0
    2.7064    1.5650    0.0000 H   0  0  0  0  0  0  0  0  0  0  0  0
    2.4207    3.8700    0.0000 H   0  0  0  0  0  0  0  0  0  0  0  0
    1.4941    3.3350    0.0000 H   0  0  0  0  0  0  0  0  0  0  0  0
    4.8455   -1.0700    0.0000 H   0  0  0  0  0  0  0  0  0  0  0  0
    5.7721   -0.5350    0.0000 H   0  0  0  0  0  0  0  0  0  0  0  0
    6.9846    0.1650    0.0000 H   0  0  0  0  0  0  0  0  0  0  0  0
    6.9847    1.2350    0.0000 H   0  0  0  0  0  0  0  0  0  0  0  0
    5.1314    1.5650    0.0000 H   0  0  0  0  0  0  0  0  0  0  0  0
    5.7721    3.3350    0.0000 H   0  0  0  0  0  0  0  0  0  0  0  0
    7.3823    1.7359    0.0000 H   0  0  0  0  0  0  0  0  0  0  0  0
    6.0580    5.9700    0.0000 H   0  0  0  0  0  0  0  0  0  0  0  0
    5.1314    5.4350    0.0000 H   0  0  0  0  0  0  0  0  0  0  0  0
    3.9189    4.7350    0.0000 H   0  0  0  0  0  0  0  0  0  0  0  0
    4.8455    5.2700    0.0000 H   0  0  0  0  0  0  0  0  0  0  0  0
    8.9326    1.3498    0.0000 H   0  0  0  0  0  0  0  0  0  0  0  0
    9.6587    2.2000    0.0000 H   0  0  0  0  0  0  0  0  0  0  0  0
   10.4948    3.5000    0.0000 H   0  0  0  0  0  0  0  0  0  0  0  0
    9.9106    4.4534    0.0000 H   0  0  0  0  0  0  0  0  0  0  0  0
    8.4248    5.9447    0.0000 H   0  0  0  0  0  0  0  0  0  0  0  0
    7.6523    6.6311    0.0000 H   0  0  0  0  0  0  0  0  0  0  0  0
    9.4419    6.5176    0.0000 H   0  0  0  0  0  0  0  0  0  0  0  0
   12.2666    5.6145    0.0000 H   0  0  0  0  0  0  0  0  0  0  0  0
    6.7032    7.6109    0.0000 H   0  0  0  0  0  0  0  0  0  0  0  0
    5.3928    6.3005    0.0000 H   0  0  0  0  0  0  0  0  0  0  0  0
    5.6697    7.3340    0.0000 H   0  0  0  0  0  0  0  0  0  0  0  0
  1  2  1  0  0  0  0
  1 24  1  0  0  0  0
  1 25  1  0  0  0  0
  2  3  1  0  0  0  0
  2 18  2  0  0  0  0
  3  4  2  0  0  0  0
  3 26  1  0  0  0  0
  4  5  1  0  0  0  0
  4  7  1  0  0  0  0
  5  6  1  0  0  0  0
  5 27  1  1  0  0  0
  6  1  1  0  0  0  0
  6 28  1  0  0  0  0
  6 29  1  0  0  0  0
  7  8  1  0  0  0  0
  7 30  1  0  0  0  0
  7 31  1  0  0  0  0
  8 32  1  0  0  0  0
  8 33  1  0  0  0  0
  9  8  1  0  0  0  0
  9 10  1  0  0  0  0
  9 11  1  0  0  0  0
  9 34  1  1  0  0  0
 10  5  1  0  0  0  0
 10 14  1  0  0  0  0
 10 35  1  6  0  0  0
 11 12  1  0  0  0  0
 11 15  1  0  0  0  0
 11 36  1  6  0  0  0
 12 13  1  0  0  0  0
 12 19  1  1  0  0  0
 13 14  1  0  0  0  0
 13 37  1  0  0  0  0
 13 38  1  0  0  0  0
 14 39  1  0  0  0  0
 14 40  1  0  0  0  0
 15 16  1  0  0  0  0
 15 41  1  0  0  0  0
 15 42  1  0  0  0  0
 16 17  1  0  0  0  0
 16 43  1  0  0  0  0
 16 44  1  0  0  0  0
 17 12  1  0  0  0  0
 17 20  1  0  0  0  0
 17 21  1  6  0  0  0
 19 23  1  0  0  0  0
 19 45  1  0  0  0  0
 19 46  1  0  0  0  0
 20 47  1  0  0  0  0
 21 22  3  0  0  0  0
 22 48  1  0  0  0  0
 23 49  1  0  0  0  0
 23 50  1  0  0  0  0
 23 51  1  0  0  0  0
M  END
>  <Mol_ID>
414

>  <Formula>
C21H28O2

>  <MolWeight>
312.44582

>  <Cat>
S1727

>  <Name>
Levonorgestrel

>  <Synonyms>
D-Norgestrel

>  <Target>
Estrogen/progestogen Receptor

>  <Form>
free base

>  <CAS>
797-63-7

>  <URL>
http://selleckchem.com/products/Levonorgestrel(Levonelle).html

$$$$
