Levomilnacipran Hydrochloride
 OpenBabel08302520343D

 40 41  0  0  0  0  0  0  0  0999 V2000
   -0.2166    0.9489   -0.0036 C   0  0  1  0  0  0  0  0  0  0  0  0
    0.5917   -0.3214    0.2997 C   0  0  0  0  0  0  0  0  0  0  0  0
   -0.8342   -0.4715   -0.1313 C   0  0  1  0  0  0  0  0  0  0  0  0
   -0.6246    1.7921    1.1935 C   0  0  0  0  0  0  0  0  0  0  0  0
    0.3666    2.3817    1.9908 N   0  0  0  0  0  0  0  0  0  0  0  0
   -1.8228    1.9092    1.4456 O   0  0  0  0  0  0  0  0  0  0  0  0
   -1.8863   -0.9847    0.7977 C   0  0  0  0  0  0  0  0  0  0  0  0
   -1.6764   -2.4165    0.9897 N   0  0  0  0  0  0  0  0  0  0  0  0
    0.7928    1.3205   -2.3763 C   0  0  0  0  0  0  0  0  0  0  0  0
   -0.0962    1.7007   -1.3506 C   0  0  0  0  0  0  0  0  0  0  0  0
   -0.9271    2.8060   -1.6263 C   0  0  0  0  0  0  0  0  0  0  0  0
   -0.8858    3.4840   -2.8495 C   0  0  0  0  0  0  0  0  0  0  0  0
   -0.0118    3.0663   -3.8430 C   0  0  0  0  0  0  0  0  0  0  0  0
    0.8297    1.9882   -3.6103 C   0  0  0  0  0  0  0  0  0  0  0  0
    1.8020    2.3073    1.6988 C   0  0  0  0  0  0  0  0  0  0  0  0
   -0.0561    2.7773    3.3346 C   0  0  0  0  0  0  0  0  0  0  0  0
    2.5515    3.6158    1.9229 C   0  0  0  0  0  0  0  0  0  0  0  0
   -0.1760    1.5700    4.2560 C   0  0  0  0  0  0  0  0  0  0  0  0
    1.3554   -0.6651   -0.3861 H   0  0  0  0  0  0  0  0  0  0  0  0
    0.8332   -0.5482    1.3328 H   0  0  0  0  0  0  0  0  0  0  0  0
   -1.0057   -0.8516   -1.1351 H   0  0  0  0  0  0  0  0  0  0  0  0
   -1.8773   -0.5040    1.7785 H   0  0  0  0  0  0  0  0  0  0  0  0
   -2.8709   -0.8210    0.3475 H   0  0  0  0  0  0  0  0  0  0  0  0
   -0.8992   -2.5449    1.6360 H   0  0  0  0  0  0  0  0  0  0  0  0
   -2.4921   -2.7991    1.4659 H   0  0  0  0  0  0  0  0  0  0  0  0
    1.4604    0.4752   -2.2385 H   0  0  0  0  0  0  0  0  0  0  0  0
   -1.6398    3.1510   -0.8780 H   0  0  0  0  0  0  0  0  0  0  0  0
   -1.5493    4.3264   -3.0222 H   0  0  0  0  0  0  0  0  0  0  0  0
    0.0066    3.5762   -4.8035 H   0  0  0  0  0  0  0  0  0  0  0  0
    1.5133    1.6501   -4.3839 H   0  0  0  0  0  0  0  0  0  0  0  0
    2.2294    1.5176    2.3259 H   0  0  0  0  0  0  0  0  0  0  0  0
    1.9576    2.0186    0.6572 H   0  0  0  0  0  0  0  0  0  0  0  0
    0.6395    3.5060    3.7558 H   0  0  0  0  0  0  0  0  0  0  0  0
   -1.0297    3.2773    3.2707 H   0  0  0  0  0  0  0  0  0  0  0  0
    2.5642    3.9102    2.9762 H   0  0  0  0  0  0  0  0  0  0  0  0
    3.5946    3.5090    1.6076 H   0  0  0  0  0  0  0  0  0  0  0  0
    2.1011    4.4314    1.3480 H   0  0  0  0  0  0  0  0  0  0  0  0
    0.7804    1.0439    4.3404 H   0  0  0  0  0  0  0  0  0  0  0  0
   -0.4911    1.8801    5.2552 H   0  0  0  0  0  0  0  0  0  0  0  0
   -0.9131    0.8542    3.8753 H   0  0  0  0  0  0  0  0  0  0  0  0
  1  2  1  0  0  0  0
  1  4  1  1  0  0  0
  1 10  1  0  0  0  0
  2  3  1  0  0  0  0
  2 19  1  0  0  0  0
  2 20  1  0  0  0  0
  3  1  1  0  0  0  0
  3  7  1  0  0  0  0
  3 21  1  6  0  0  0
  4  6  2  0  0  0  0
  5  4  1  0  0  0  0
  5 15  1  0  0  0  0
  5 16  1  0  0  0  0
  7 22  1  0  0  0  0
  7 23  1  0  0  0  0
  8  7  1  0  0  0  0
  8 24  1  0  0  0  0
  8 25  1  0  0  0  0
  9 10  2  0  0  0  0
  9 26  1  0  0  0  0
 10 11  1  0  0  0  0
 11 12  2  0  0  0  0
 11 27  1  0  0  0  0
 12 13  1  0  0  0  0
 12 28  1  0  0  0  0
 13 14  2  0  0  0  0
 13 29  1  0  0  0  0
 14  9  1  0  0  0  0
 14 30  1  0  0  0  0
 15 17  1  0  0  0  0
 15 31  1  0  0  0  0
 15 32  1  0  0  0  0
 16 18  1  0  0  0  0
 16 33  1  0  0  0  0
 16 34  1  0  0  0  0
 17 35  1  0  0  0  0
 17 36  1  0  0  0  0
 17 37  1  0  0  0  0
 18 38  1  0  0  0  0
 18 39  1  0  0  0  0
 18 40  1  0  0  0  0
M  END
>  <Mol_ID>
3368

>  <Formula>
C15H23ClN2O

>  <MolWeight>
282.80892

>  <Cat>
S5693

>  <Name>
Levomilnacipran Hydrochloride

>  <Synonyms>
N/A

>  <Target>
Serotonin Transporter

>  <Form>
Hydrochloride

>  <CAS>
175131-60-9

>  <URL>
http://www.selleckchem.com/products/levomilnacipran-hydrochloride.html

$$$$
