LF3.cdx
 OpenBabel08302520433D

 52 54  0  0  0  0  0  0  0  0999 V2000
    1.2874   -0.2094   -1.2126 C   0  0  0  0  0  0  0  0  0  0  0  0
    0.3350   -0.9974   -0.5520 C   0  0  0  0  0  0  0  0  0  0  0  0
   -1.0030   -1.0220   -0.9781 C   0  0  0  0  0  0  0  0  0  0  0  0
   -1.3778   -0.2272   -2.0640 C   0  0  0  0  0  0  0  0  0  0  0  0
   -0.4292    0.5415   -2.7449 C   0  0  0  0  0  0  0  0  0  0  0  0
    0.9035    0.5209   -2.3387 C   0  0  0  0  0  0  0  0  0  0  0  0
    2.0961    1.4165   -3.2931 S   0  0  0  0  0  0  0  0  0  0  0  0
    1.4316    2.4879   -4.0009 O   0  0  0  0  0  0  0  0  0  0  0  0
    3.2849    1.6255   -2.5068 O   0  0  0  0  0  0  0  0  0  0  0  0
    2.4996    0.2807   -4.4660 N   0  0  0  0  0  0  0  0  0  0  0  0
   -1.8809   -1.9595   -0.3779 N   0  0  0  0  0  0  0  0  0  0  0  0
   -3.2685   -1.9255   -0.2853 C   0  0  0  0  0  0  0  0  0  0  0  0
   -3.8439   -3.2150   -0.2513 N   0  0  0  0  0  0  0  0  0  0  0  0
   -4.1845   -0.5109   -0.2331 S   0  0  0  0  0  0  0  0  0  0  0  0
   -3.4839   -4.1683    0.8122 C   0  0  0  0  0  0  0  0  0  0  0  0
   -3.8471   -5.6273    0.4532 C   0  0  0  0  0  0  0  0  0  0  0  0
   -5.2211   -5.8564   -0.0471 N   0  0  0  0  0  0  0  0  0  0  0  0
   -5.5044   -4.8803   -1.1188 C   0  0  0  0  0  0  0  0  0  0  0  0
   -5.2135   -3.4107   -0.7585 C   0  0  0  0  0  0  0  0  0  0  0  0
   -6.2610   -5.8388    0.9938 C   0  0  0  0  0  0  0  0  0  0  0  0
   -6.0990   -6.9946    1.9415 C   0  0  0  0  0  0  0  0  0  0  0  0
   -5.9825   -6.8747    3.2748 C   0  0  0  0  0  0  0  0  0  0  0  0
   -5.5947   -7.9753    4.1745 C   0  0  0  0  0  0  0  0  0  0  0  0
   -4.7228   -8.9870    3.7423 C   0  0  0  0  0  0  0  0  0  0  0  0
   -4.2175   -9.9322    4.6356 C   0  0  0  0  0  0  0  0  0  0  0  0
   -4.5768   -9.8809    5.9780 C   0  0  0  0  0  0  0  0  0  0  0  0
   -5.4564   -8.8956    6.4232 C   0  0  0  0  0  0  0  0  0  0  0  0
   -5.9616   -7.9431    5.5281 C   0  0  0  0  0  0  0  0  0  0  0  0
    2.3160   -0.1905   -0.8606 H   0  0  0  0  0  0  0  0  0  0  0  0
    0.6452   -1.5787    0.3146 H   0  0  0  0  0  0  0  0  0  0  0  0
   -2.3911   -0.2428   -2.4564 H   0  0  0  0  0  0  0  0  0  0  0  0
   -0.7372    1.1254   -3.6117 H   0  0  0  0  0  0  0  0  0  0  0  0
    2.0310    0.4897   -5.3470 H   0  0  0  0  0  0  0  0  0  0  0  0
    3.5192    0.2180   -4.5468 H   0  0  0  0  0  0  0  0  0  0  0  0
   -1.4266   -2.7962   -0.0413 H   0  0  0  0  0  0  0  0  0  0  0  0
   -2.4172   -4.1072    1.0417 H   0  0  0  0  0  0  0  0  0  0  0  0
   -4.0174   -3.8577    1.7192 H   0  0  0  0  0  0  0  0  0  0  0  0
   -3.1638   -5.9513   -0.3435 H   0  0  0  0  0  0  0  0  0  0  0  0
   -3.6193   -6.2822    1.3020 H   0  0  0  0  0  0  0  0  0  0  0  0
   -4.8813   -5.1510   -1.9816 H   0  0  0  0  0  0  0  0  0  0  0  0
   -6.5406   -4.9774   -1.4636 H   0  0  0  0  0  0  0  0  0  0  0  0
   -5.9179   -3.0539    0.0019 H   0  0  0  0  0  0  0  0  0  0  0  0
   -5.3454   -2.8007   -1.6593 H   0  0  0  0  0  0  0  0  0  0  0  0
   -6.2880   -4.8840    1.5302 H   0  0  0  0  0  0  0  0  0  0  0  0
   -7.2420   -5.9679    0.5171 H   0  0  0  0  0  0  0  0  0  0  0  0
   -6.0303   -7.9714    1.4663 H   0  0  0  0  0  0  0  0  0  0  0  0
   -6.0849   -5.8997    3.7454 H   0  0  0  0  0  0  0  0  0  0  0  0
   -4.3967   -9.0297    2.7061 H   0  0  0  0  0  0  0  0  0  0  0  0
   -3.5262  -10.6916    4.2814 H   0  0  0  0  0  0  0  0  0  0  0  0
   -4.1644  -10.6030    6.6778 H   0  0  0  0  0  0  0  0  0  0  0  0
   -5.7357   -8.8564    7.4727 H   0  0  0  0  0  0  0  0  0  0  0  0
   -6.6271   -7.1730    5.9040 H   0  0  0  0  0  0  0  0  0  0  0  0
  1  2  2  0  0  0  0
  1 29  1  0  0  0  0
  2  3  1  0  0  0  0
  2 30  1  0  0  0  0
  3  4  2  0  0  0  0
  3 11  1  0  0  0  0
  4  5  1  0  0  0  0
  4 31  1  0  0  0  0
  5  6  2  0  0  0  0
  5 32  1  0  0  0  0
  6  1  1  0  0  0  0
  6  7  1  0  0  0  0
  7  8  2  0  0  0  0
  7  9  2  0  0  0  0
  7 10  1  0  0  0  0
 10 33  1  0  0  0  0
 10 34  1  0  0  0  0
 11 12  1  0  0  0  0
 11 35  1  0  0  0  0
 12 13  1  0  0  0  0
 12 14  2  0  0  0  0
 13 15  1  0  0  0  0
 15 16  1  0  0  0  0
 15 36  1  0  0  0  0
 15 37  1  0  0  0  0
 16 17  1  0  0  0  0
 16 38  1  0  0  0  0
 16 39  1  0  0  0  0
 17 18  1  0  0  0  0
 17 20  1  0  0  0  0
 18 19  1  0  0  0  0
 18 40  1  0  0  0  0
 18 41  1  0  0  0  0
 19 13  1  0  0  0  0
 19 42  1  0  0  0  0
 19 43  1  0  0  0  0
 20 21  1  0  0  0  0
 20 44  1  0  0  0  0
 20 45  1  0  0  0  0
 21 22  2  0  0  0  0
 21 46  1  0  0  0  0
 22 23  1  0  0  0  0
 22 47  1  0  0  0  0
 23 24  2  0  0  0  0
 24 25  1  0  0  0  0
 24 48  1  0  0  0  0
 25 26  2  0  0  0  0
 25 49  1  0  0  0  0
 26 27  1  0  0  0  0
 26 50  1  0  0  0  0
 27 28  2  0  0  0  0
 27 51  1  0  0  0  0
 28 23  1  0  0  0  0
 28 52  1  0  0  0  0
M  END
>  <Mol_ID>
4122

>  <Formula>
C20H24N4O2S2

>  <MolWeight>
416.56016

>  <Cat>
S8474

>  <Name>
LF3

>  <Synonyms>
N/A

>  <Target>
Wnt/beta-catenin

>  <Form>
free base

>  <CAS>
664969-54-4

>  <URL>
http://selleckchem.com/products/lf3.html

$$$$
