Licarin B
 OpenBabel08302521493D

 44 47  0  0  1  0  0  0  0  0999 V2000
    1.1137   -0.1961   -0.2356 O   0  0  0  0  0  0  0  0  0  0  0  0
    0.3248    0.9846   -0.1275 C   0  0  0  0  0  0  0  0  0  0  0  0
    6.0302   -2.6715    1.1801 C   0  0  0  0  0  0  0  0  0  0  0  0
    5.2270    2.5966   -0.0942 C   0  0  0  0  0  0  0  0  0  0  0  0
    4.7588    3.7225   -0.6581 C   0  0  0  0  0  0  0  0  0  0  0  0
    5.4563    5.0414   -0.5980 C   0  0  0  0  0  0  0  0  0  0  0  0
    3.2598   -1.1705   -0.2476 C   0  0  0  0  0  0  0  0  0  0  0  0
    4.6417   -1.0987   -0.1709 C   0  0  0  0  0  0  0  0  0  0  0  0
    2.7852   -2.4570   -0.3441 O   0  0  0  0  0  0  0  0  0  0  0  0
    2.4703   -0.0290   -0.2246 C   0  0  0  0  0  0  0  0  0  0  0  0
    5.2265   -2.4634   -0.1018 C   0  0  2  0  0  0  0  0  0  0  0  0
    5.2969    0.1241   -0.1359 C   0  0  0  0  0  0  0  0  0  0  0  0
    3.9379   -3.3209   -0.1418 C   0  0  2  0  0  0  0  0  0  0  0  0
    3.1285    1.2078   -0.1627 C   0  0  0  0  0  0  0  0  0  0  0  0
    4.5367    1.2987   -0.1539 C   0  0  0  0  0  0  0  0  0  0  0  0
    4.0361   -4.4014   -1.2159 C   0  0  0  0  0  0  0  0  0  0  0  0
    4.6619   -5.6281   -0.9095 C   0  0  0  0  0  0  0  0  0  0  0  0
    3.5843   -4.1752   -2.5364 C   0  0  0  0  0  0  0  0  0  0  0  0
    4.8023   -6.5662   -1.9133 C   0  0  0  0  0  0  0  0  0  0  0  0
    3.7403   -5.1476   -3.5371 C   0  0  0  0  0  0  0  0  0  0  0  0
    4.3541   -6.3323   -3.1904 C   0  0  0  0  0  0  0  0  0  0  0  0
    5.3889   -7.7876   -1.7853 O   0  0  0  0  0  0  0  0  0  0  0  0
    4.5967   -7.3780   -4.0262 O   0  0  0  0  0  0  0  0  0  0  0  0
    5.2404   -8.3011   -3.1252 C   0  0  0  0  0  0  0  0  0  0  0  0
    0.5336    1.5210    0.8052 H   0  0  0  0  0  0  0  0  0  0  0  0
    0.4736    1.6357   -0.9959 H   0  0  0  0  0  0  0  0  0  0  0  0
   -0.7289    0.6913   -0.1088 H   0  0  0  0  0  0  0  0  0  0  0  0
    5.5948   -2.1314    2.0294 H   0  0  0  0  0  0  0  0  0  0  0  0
    6.0964   -3.7303    1.4484 H   0  0  0  0  0  0  0  0  0  0  0  0
    7.0516   -2.2968    1.0501 H   0  0  0  0  0  0  0  0  0  0  0  0
    6.1788    2.6068    0.4322 H   0  0  0  0  0  0  0  0  0  0  0  0
    3.8238    3.7176   -1.2114 H   0  0  0  0  0  0  0  0  0  0  0  0
    5.6537    5.4005   -1.6125 H   0  0  0  0  0  0  0  0  0  0  0  0
    4.8193    5.7738   -0.0920 H   0  0  0  0  0  0  0  0  0  0  0  0
    6.4081    4.9849   -0.0615 H   0  0  0  0  0  0  0  0  0  0  0  0
    5.8650   -2.6467   -0.9745 H   0  0  0  0  0  0  0  0  0  0  0  0
    6.3822    0.1615   -0.0937 H   0  0  0  0  0  0  0  0  0  0  0  0
    3.7617   -3.8194    0.8213 H   0  0  0  0  0  0  0  0  0  0  0  0
    2.5577    2.1287   -0.1109 H   0  0  0  0  0  0  0  0  0  0  0  0
    5.0391   -5.8425    0.0857 H   0  0  0  0  0  0  0  0  0  0  0  0
    3.1093   -3.2266   -2.7947 H   0  0  0  0  0  0  0  0  0  0  0  0
    3.3963   -4.9724   -4.5472 H   0  0  0  0  0  0  0  0  0  0  0  0
    6.2348   -8.5430   -3.5223 H   0  0  0  0  0  0  0  0  0  0  0  0
    4.6487   -9.2247   -3.0846 H   0  0  0  0  0  0  0  0  0  0  0  0
  1  2  1  0  0  0  0
  1 10  1  0  0  0  0
  2 25  1  0  0  0  0
  2 26  1  0  0  0  0
  2 27  1  0  0  0  0
  3 28  1  0  0  0  0
  3 29  1  0  0  0  0
  3 30  1  0  0  0  0
  4  5  2  0  0  0  0
  4 15  1  0  0  0  0
  4 31  1  0  0  0  0
  5  6  1  0  0  0  0
  5 32  1  0  0  0  0
  6 33  1  0  0  0  0
  6 34  1  0  0  0  0
  6 35  1  0  0  0  0
  7  8  2  0  0  0  0
  7  9  1  0  0  0  0
  7 10  1  0  0  0  0
  8 11  1  0  0  0  0
  8 12  1  0  0  0  0
  9 13  1  0  0  0  0
 10 14  2  0  0  0  0
 11 13  1  0  0  0  0
 11 36  1  6  0  0  0
 11  3  1  0  0  0  0
 12 15  2  0  0  0  0
 12 37  1  0  0  0  0
 13 16  1  0  0  0  0
 13 38  1  1  0  0  0
 14 15  1  0  0  0  0
 14 39  1  0  0  0  0
 16 17  2  0  0  0  0
 16 18  1  0  0  0  0
 17 19  1  0  0  0  0
 17 40  1  0  0  0  0
 18 20  2  0  0  0  0
 18 41  1  0  0  0  0
 19 21  2  0  0  0  0
 19 22  1  0  0  0  0
 20 21  1  0  0  0  0
 20 42  1  0  0  0  0
 21 23  1  0  0  0  0
 22 24  1  0  0  0  0
 23 24  1  0  0  0  0
 24 43  1  0  0  0  0
 24 44  1  0  0  0  0
M  END
>  <Mol_ID>
9853

>  <Formula>
C20H20O4

>  <MolWeight>
324.3704

>  <Cat>
E2549

>  <Name>
Licarin B

>  <Synonyms>
(-)-Licarin B

>  <Target>
nitric oxide production, PPARg , GLUT4

>  <Form>
Free base

>  <CAS>
51020-87-2

>  <URL>
https://www.selleckchem.com/products/--licarin-b.html

$$$$
