Licochalcone A.cdx
 OpenBabel08302519593D

 47 48  0  0  0  0  0  0  0  0999 V2000
   -1.1262   -1.9765    2.8067 C   0  0  0  0  0  0  0  0  0  0  0  0
   -1.1133   -1.2917    4.0133 C   0  0  0  0  0  0  0  0  0  0  0  0
   -1.8938   -0.1553    4.1916 C   0  0  0  0  0  0  0  0  0  0  0  0
   -2.7111    0.3047    3.1532 C   0  0  0  0  0  0  0  0  0  0  0  0
   -2.7409   -0.3713    1.9268 C   0  0  0  0  0  0  0  0  0  0  0  0
   -1.9384   -1.5165    1.7655 C   0  0  0  0  0  0  0  0  0  0  0  0
   -3.6122    0.0342    0.7808 C   0  0  0  0  0  0  0  0  0  0  0  0
   -4.3694    1.3142    0.8467 C   0  0  0  0  0  0  0  0  0  0  0  0
   -5.3789    1.5157   -0.0179 C   0  0  0  0  0  0  0  0  0  0  0  0
   -6.0690    2.8066   -0.1312 C   0  0  0  0  0  0  0  0  0  0  0  0
   -0.3487   -1.7058    5.0620 O   0  0  0  0  0  0  0  0  0  0  0  0
   -5.6443    3.8242   -0.9940 C   0  0  0  0  0  0  0  0  0  0  0  0
   -6.3317    5.0374   -0.9902 C   0  0  0  0  0  0  0  0  0  0  0  0
   -7.4341    5.2499   -0.1611 C   0  0  0  0  0  0  0  0  0  0  0  0
   -7.9095    4.2552    0.7123 C   0  0  0  0  0  0  0  0  0  0  0  0
   -7.1920    3.0332    0.7027 C   0  0  0  0  0  0  0  0  0  0  0  0
   -4.5562    3.8342   -1.8240 O   0  0  0  0  0  0  0  0  0  0  0  0
   -3.6757   -0.6800   -0.2172 O   0  0  0  0  0  0  0  0  0  0  0  0
   -9.1584    4.4607    1.6098 C   0  0  0  0  0  0  0  0  0  0  0  0
   -4.2122    2.6314   -2.4983 C   0  0  0  0  0  0  0  0  0  0  0  0
   -7.9849    6.4952   -0.2870 O   0  0  0  0  0  0  0  0  0  0  0  0
   -8.9322    5.6387    2.5686 C   0  0  0  0  0  0  0  0  0  0  0  0
   -9.6619    6.7585    2.6888 C   0  0  0  0  0  0  0  0  0  0  0  0
  -10.4010    4.6279    0.6983 C   0  0  0  0  0  0  0  0  0  0  0  0
   -9.4751    3.2576    2.5352 C   0  0  0  0  0  0  0  0  0  0  0  0
   -0.5212   -2.8679    2.6540 H   0  0  0  0  0  0  0  0  0  0  0  0
   -1.8736    0.3689    5.1443 H   0  0  0  0  0  0  0  0  0  0  0  0
   -3.3184    1.1826    3.3429 H   0  0  0  0  0  0  0  0  0  0  0  0
   -1.9482   -2.0625    0.8232 H   0  0  0  0  0  0  0  0  0  0  0  0
   -4.0582    2.0890    1.5333 H   0  0  0  0  0  0  0  0  0  0  0  0
   -5.6823    0.7485   -0.7268 H   0  0  0  0  0  0  0  0  0  0  0  0
    0.1128   -2.5229    4.8096 H   0  0  0  0  0  0  0  0  0  0  0  0
   -6.0000    5.8406   -1.6452 H   0  0  0  0  0  0  0  0  0  0  0  0
   -7.4965    2.2148    1.3528 H   0  0  0  0  0  0  0  0  0  0  0  0
   -3.4823    2.0682   -1.9115 H   0  0  0  0  0  0  0  0  0  0  0  0
   -5.0835    2.0209   -2.7556 H   0  0  0  0  0  0  0  0  0  0  0  0
   -3.7223    2.9105   -3.4372 H   0  0  0  0  0  0  0  0  0  0  0  0
   -8.5112    6.6924    0.5010 H   0  0  0  0  0  0  0  0  0  0  0  0
   -8.0712    5.5329    3.2316 H   0  0  0  0  0  0  0  0  0  0  0  0
   -9.3870    7.5193    3.4155 H   0  0  0  0  0  0  0  0  0  0  0  0
  -10.5385    6.9613    2.0815 H   0  0  0  0  0  0  0  0  0  0  0  0
  -10.5276    3.7553    0.0459 H   0  0  0  0  0  0  0  0  0  0  0  0
  -11.3203    4.7285    1.2888 H   0  0  0  0  0  0  0  0  0  0  0  0
  -10.3402    5.5062    0.0480 H   0  0  0  0  0  0  0  0  0  0  0  0
   -9.6991    2.3514    1.9598 H   0  0  0  0  0  0  0  0  0  0  0  0
   -8.6440    3.0306    3.2142 H   0  0  0  0  0  0  0  0  0  0  0  0
  -10.3539    3.4603    3.1616 H   0  0  0  0  0  0  0  0  0  0  0  0
  1  2  2  0  0  0  0
  1 26  1  0  0  0  0
  2  3  1  0  0  0  0
  2 11  1  0  0  0  0
  3  4  2  0  0  0  0
  3 27  1  0  0  0  0
  4  5  1  0  0  0  0
  4 28  1  0  0  0  0
  5  6  2  0  0  0  0
  5  7  1  0  0  0  0
  6  1  1  0  0  0  0
  6 29  1  0  0  0  0
  7  8  1  0  0  0  0
  7 18  2  0  0  0  0
  8  9  2  0  0  0  0
  8 30  1  0  0  0  0
  9 10  1  0  0  0  0
  9 31  1  0  0  0  0
 10 12  2  0  0  0  0
 11 32  1  0  0  0  0
 12 13  1  0  0  0  0
 12 17  1  0  0  0  0
 13 14  2  0  0  0  0
 13 33  1  0  0  0  0
 14 15  1  0  0  0  0
 14 21  1  0  0  0  0
 15 16  2  0  0  0  0
 15 19  1  0  0  0  0
 16 10  1  0  0  0  0
 16 34  1  0  0  0  0
 17 20  1  0  0  0  0
 19 22  1  0  0  0  0
 19 24  1  0  0  0  0
 20 35  1  0  0  0  0
 20 36  1  0  0  0  0
 20 37  1  0  0  0  0
 21 38  1  0  0  0  0
 22 23  2  0  0  0  0
 22 39  1  0  0  0  0
 23 40  1  0  0  0  0
 23 41  1  0  0  0  0
 24 42  1  0  0  0  0
 24 43  1  0  0  0  0
 24 44  1  0  0  0  0
 25 19  1  0  0  0  0
 25 45  1  0  0  0  0
 25 46  1  0  0  0  0
 25 47  1  0  0  0  0
M  END
>  <Mol_ID>
2605

>  <Formula>
C21H22O4

>  <MolWeight>
338.39698

>  <Cat>
S7828

>  <Name>
Licochalcone A

>  <Synonyms>
N/A

>  <Target>
Estrogen/progestogen Receptor

>  <Form>
free base

>  <CAS>
58749-22-7

>  <URL>
http://selleckchem.com/products/licochalcone-a.html

$$$$
