Linagliptin.cdx
 OpenBabel08302521443D

 63 67  0  0  0  0  0  0  0  0999 V2000
    1.5796   -3.1855   -2.5479 C   0  0  0  0  0  0  0  0  0  0  0  0
    2.4533   -4.0409   -1.8780 C   0  0  0  0  0  0  0  0  0  0  0  0
    3.2349   -3.6083   -0.8117 C   0  0  0  0  0  0  0  0  0  0  0  0
    3.1793   -2.2600   -0.4358 C   0  0  0  0  0  0  0  0  0  0  0  0
    2.2077   -1.4646   -1.0592 C   0  0  0  0  0  0  0  0  0  0  0  0
    1.4136   -1.8994   -2.0798 C   0  0  0  0  0  0  0  0  0  0  0  0
    4.0390   -1.5990    0.4496 C   0  0  0  0  0  0  0  0  0  0  0  0
    3.9548   -0.2641    0.5961 N   0  0  0  0  0  0  0  0  0  0  0  0
    2.9526    0.3654   -0.0747 C   0  0  0  0  0  0  0  0  0  0  0  0
    2.0346   -0.2174   -0.8378 N   0  0  0  0  0  0  0  0  0  0  0  0
    5.1297   -2.3136    1.2063 C   0  0  0  0  0  0  0  0  0  0  0  0
    2.8738    1.8493   -0.1561 C   0  0  0  0  0  0  0  0  0  0  0  0
    2.8736    2.3610   -1.5502 N   0  0  0  0  0  0  0  0  0  0  0  0
    2.7135    3.7286   -1.5756 C   0  0  0  0  0  0  0  0  0  0  0  0
    3.4518    4.4960   -2.5669 N   0  0  0  0  0  0  0  0  0  0  0  0
    4.4753    3.8443   -3.3667 C   0  0  0  0  0  0  0  0  0  0  0  0
    4.1901    2.5126   -3.5866 C   0  0  0  0  0  0  0  0  0  0  0  0
    4.0432    2.0050   -2.1779 C   0  0  0  0  0  0  0  0  0  0  0  0
    5.9754    3.6231   -3.0383 N   0  0  0  0  0  0  0  0  0  0  0  0
    6.3139    2.3488   -3.5098 C   0  0  0  0  0  0  0  0  0  0  0  0
    5.3119    2.3059   -4.4886 N   0  0  0  0  0  0  0  0  0  0  0  0
    6.8505    1.1261   -2.9730 N   0  0  0  0  0  0  0  0  0  0  0  0
    7.4609    0.9979   -1.6126 C   0  0  0  0  0  0  0  0  0  0  0  0
    9.0365    0.7683   -1.7619 C   0  0  1  0  0  0  0  0  0  0  0  0
    9.2123   -0.6015   -2.4254 C   0  0  0  0  0  0  0  0  0  0  0  0
    8.4743   -0.5531   -3.8003 C   0  0  0  0  0  0  0  0  0  0  0  0
    6.9741   -0.2025   -3.6527 C   0  0  0  0  0  0  0  0  0  0  0  0
    2.0174    4.2546   -0.7651 O   0  0  0  0  0  0  0  0  0  0  0  0
    2.3745    5.3524   -3.2075 C   0  0  0  0  0  0  0  0  0  0  0  0
    4.9570    2.0346   -1.3764 O   0  0  0  0  0  0  0  0  0  0  0  0
    5.5377    3.1948   -5.6795 C   0  0  0  0  0  0  0  0  0  0  0  0
    5.6211    2.3938   -6.8624 C   0  0  0  0  0  0  0  0  0  0  0  0
    5.9926    1.5485   -7.7830 C   0  0  0  0  0  0  0  0  0  0  0  0
    6.4258    0.5630   -8.8561 C   0  0  0  0  0  0  0  0  0  0  0  0
    9.8767    1.5249   -2.7197 N   0  0  0  0  0  0  0  0  0  0  0  0
    1.0317   -3.4834   -3.4269 H   0  0  0  0  0  0  0  0  0  0  0  0
    2.5624   -5.0641   -2.2348 H   0  0  0  0  0  0  0  0  0  0  0  0
    3.9157   -4.2847   -0.3222 H   0  0  0  0  0  0  0  0  0  0  0  0
    0.7300   -1.1974   -2.5461 H   0  0  0  0  0  0  0  0  0  0  0  0
    4.6964   -3.0821    1.8551 H   0  0  0  0  0  0  0  0  0  0  0  0
    5.8267   -2.7849    0.5062 H   0  0  0  0  0  0  0  0  0  0  0  0
    5.7042   -1.6275    1.8387 H   0  0  0  0  0  0  0  0  0  0  0  0
    1.9827    2.1797    0.3689 H   0  0  0  0  0  0  0  0  0  0  0  0
    3.7520    2.1949    0.3937 H   0  0  0  0  0  0  0  0  0  0  0  0
    7.1586    1.7700   -0.9017 H   0  0  0  0  0  0  0  0  0  0  0  0
    7.0533    0.0723   -1.1274 H   0  0  0  0  0  0  0  0  0  0  0  0
    9.4941    0.7503   -0.7651 H   0  0  0  0  0  0  0  0  0  0  0  0
   10.2872   -0.8191   -2.5635 H   0  0  0  0  0  0  0  0  0  0  0  0
    8.8466   -1.3997   -1.7687 H   0  0  0  0  0  0  0  0  0  0  0  0
    8.8909    0.2135   -4.4631 H   0  0  0  0  0  0  0  0  0  0  0  0
    8.6548   -1.4932   -4.3207 H   0  0  0  0  0  0  0  0  0  0  0  0
    6.5512   -1.0159   -3.0323 H   0  0  0  0  0  0  0  0  0  0  0  0
    6.4616   -0.2527   -4.6126 H   0  0  0  0  0  0  0  0  0  0  0  0
    2.7833    6.3396   -3.3625 H   0  0  0  0  0  0  0  0  0  0  0  0
    2.0300    4.8489   -4.0796 H   0  0  0  0  0  0  0  0  0  0  0  0
    1.5250    5.4376   -2.5314 H   0  0  0  0  0  0  0  0  0  0  0  0
    4.7309    3.9246   -5.7845 H   0  0  0  0  0  0  0  0  0  0  0  0
    6.4743    3.7676   -5.5399 H   0  0  0  0  0  0  0  0  0  0  0  0
    5.6218    0.4279   -9.5849 H   0  0  0  0  0  0  0  0  0  0  0  0
    7.3141    0.9388   -9.3714 H   0  0  0  0  0  0  0  0  0  0  0  0
    6.6602   -0.4036   -8.4016 H   0  0  0  0  0  0  0  0  0  0  0  0
   10.2782    2.4065   -2.4152 H   0  0  0  0  0  0  0  0  0  0  0  0
    9.2847    1.7695   -3.5170 H   0  0  0  0  0  0  0  0  0  0  0  0
  1  2  2  0  0  0  0
  1 36  1  0  0  0  0
  2  3  1  0  0  0  0
  2 37  1  0  0  0  0
  3  4  2  0  0  0  0
  3 38  1  0  0  0  0
  4  5  1  0  0  0  0
  4  7  1  0  0  0  0
  5  6  2  0  0  0  0
  6  1  1  0  0  0  0
  6 39  1  0  0  0  0
  7  8  2  0  0  0  0
  7 11  1  0  0  0  0
  8  9  1  0  0  0  0
  9 10  2  0  0  0  0
  9 12  1  0  0  0  0
 10  5  1  0  0  0  0
 11 40  1  0  0  0  0
 11 41  1  0  0  0  0
 11 42  1  0  0  0  0
 12 13  1  0  0  0  0
 12 43  1  0  0  0  0
 12 44  1  0  0  0  0
 13 14  1  0  0  0  0
 14 15  1  0  0  0  0
 14 28  2  0  0  0  0
 15 16  1  0  0  0  0
 15 29  1  0  0  0  0
 16 17  2  0  0  0  0
 16 19  1  0  0  0  0
 17 18  1  0  0  0  0
 18 13  1  0  0  0  0
 18 30  2  0  0  0  0
 19 20  2  0  0  0  0
 20 21  1  0  0  0  0
 20 22  1  0  0  0  0
 21 17  1  0  0  0  0
 21 31  1  0  0  0  0
 22 23  1  0  0  0  0
 23 24  1  0  0  0  0
 23 45  1  0  0  0  0
 23 46  1  0  0  0  0
 24 25  1  0  0  0  0
 24 35  1  0  0  0  0
 24 47  1  1  0  0  0
 25 26  1  0  0  0  0
 25 48  1  0  0  0  0
 25 49  1  0  0  0  0
 26 27  1  0  0  0  0
 26 50  1  0  0  0  0
 26 51  1  0  0  0  0
 27 22  1  0  0  0  0
 27 52  1  0  0  0  0
 27 53  1  0  0  0  0
 29 54  1  0  0  0  0
 29 55  1  0  0  0  0
 29 56  1  0  0  0  0
 31 32  1  0  0  0  0
 31 57  1  0  0  0  0
 31 58  1  0  0  0  0
 32 33  3  0  0  0  0
 33 34  1  0  0  0  0
 34 59  1  0  0  0  0
 34 60  1  0  0  0  0
 34 61  1  0  0  0  0
 35 62  1  0  0  0  0
 35 63  1  0  0  0  0
M  END
>  <Mol_ID>
893

>  <Formula>
C25H28N8O2

>  <MolWeight>
472.54222

>  <Cat>
S3031

>  <Name>
Linagliptin (BI-1356)

>  <Synonyms>
GSK2118436

>  <Target>
Autophagy,Ferroptosis

>  <Form>
free base

>  <CAS>
668270-12-0

>  <URL>
http://selleckchem.com/products/linagliptin-bi-1356.html

$$$$
