Linderene
 OpenBabel08302521352D

 35 38  0  0  0  0  0  0  0  0999 V2000
    3.3668    3.1849    0.0000 C   0  0  1  0  0  0  0  0  0  0  0  0
    3.3668    1.7849    0.0000 C   0  0  1  0  0  0  0  0  0  0  0  0
    4.5793    1.0849    0.0000 C   0  0  0  0  0  0  0  0  0  0  0  0
    5.7917    1.7849    0.0000 C   0  0  0  0  0  0  0  0  0  0  0  0
    5.7917    3.1849    0.0000 C   0  0  0  0  0  0  0  0  0  0  0  0
    4.5793    3.8849    0.0000 C   0  0  2  0  0  0  0  0  0  0  0  0
    7.1232    1.3523    0.0000 O   0  0  0  0  0  0  0  0  0  0  0  0
    7.9461    2.4849    0.0000 C   0  0  0  0  0  0  0  0  0  0  0  0
    7.1232    3.6175    0.0000 C   0  0  0  0  0  0  0  0  0  0  0  0
    2.0353    3.6175    0.0000 C   0  0  0  0  0  0  0  0  0  0  0  0
    1.2124    2.4849    0.0000 C   0  0  2  0  0  0  0  0  0  0  0  0
    2.0353    1.3523    0.0000 C   0  0  1  0  0  0  0  0  0  0  0  0
    4.5793    5.2801    0.0000 O   0  0  0  0  0  0  0  0  0  0  0  0
    3.3668    0.3849    0.0000 C   0  0  0  0  0  0  0  0  0  0  0  0
    7.4855    4.9698    0.0000 C   0  0  0  0  0  0  0  0  0  0  0  0
    1.6730    4.9698    0.0000 C   0  0  0  0  0  0  0  0  0  0  0  0
    0.6430    1.2060    0.0000 C   0  0  0  0  0  0  0  0  0  0  0  0
    2.5012    2.5560    0.0000 H   0  0  0  0  0  0  0  0  0  0  0  0
    4.5793    0.0149    0.0000 H   0  0  0  0  0  0  0  0  0  0  0  0
    5.5060    0.5499    0.0000 H   0  0  0  0  0  0  0  0  0  0  0  0
    5.5060    4.4199    0.0000 H   0  0  0  0  0  0  0  0  0  0  0  0
    8.9781    2.4849    0.0000 H   0  0  0  0  0  0  0  0  0  0  0  0
    2.1390    1.9499    0.0000 H   0  0  0  0  0  0  0  0  0  0  0  0
    1.0578    1.7875    0.0000 H   0  0  0  0  0  0  0  0  0  0  0  0
    5.4193    5.7651    0.0000 H   0  0  0  0  0  0  0  0  0  0  0  0
    2.4402   -0.1501    0.0000 H   0  0  0  0  0  0  0  0  0  0  0  0
    4.2934   -0.1501    0.0000 H   0  0  0  0  0  0  0  0  0  0  0  0
    3.3668   -0.6851    0.0000 H   0  0  0  0  0  0  0  0  0  0  0  0
    8.5190    5.2468    0.0000 H   0  0  0  0  0  0  0  0  0  0  0  0
    6.7289    5.7264    0.0000 H   0  0  0  0  0  0  0  0  0  0  0  0
    7.7624    6.0033    0.0000 H   0  0  0  0  0  0  0  0  0  0  0  0
    2.4028    5.6995    0.0000 H   0  0  0  0  0  0  0  0  0  0  0  0
    0.6762    5.2369    0.0000 H   0  0  0  0  0  0  0  0  0  0  0  0
   -0.2227    0.5771    0.0000 H   0  0  0  0  0  0  0  0  0  0  0  0
    1.0264    0.2071    0.0000 H   0  0  0  0  0  0  0  0  0  0  0  0
  1  2  1  0  0  0  0
  1 10  1  0  0  0  0
  1 18  1  1  0  0  0
  2  3  1  0  0  0  0
  2 14  1  6  0  0  0
  3  4  1  0  0  0  0
  3 19  1  0  0  0  0
  3 20  1  0  0  0  0
  4  5  2  0  0  0  0
  4  7  1  0  0  0  0
  5  6  1  0  0  0  0
  6  1  1  0  0  0  0
  6 13  1  0  0  0  0
  6 21  1  6  0  0  0
  7  8  1  0  0  0  0
  8  9  2  0  0  0  0
  8 22  1  0  0  0  0
  9  5  1  0  0  0  0
  9 15  1  0  0  0  0
 10 11  1  0  0  0  0
 10 16  2  0  0  0  0
 11 12  1  0  0  0  0
 11 17  1  0  0  0  0
 11 23  1  1  0  0  0
 12  2  1  0  0  0  0
 12 17  1  0  0  0  0
 12 24  1  1  0  0  0
 13 25  1  0  0  0  0
 14 26  1  0  0  0  0
 14 27  1  0  0  0  0
 14 28  1  0  0  0  0
 15 29  1  0  0  0  0
 15 30  1  0  0  0  0
 15 31  1  0  0  0  0
 16 32  1  0  0  0  0
 16 33  1  0  0  0  0
 17 34  1  0  0  0  0
 17 35  1  0  0  0  0
M  END
>  <Mol_ID>
5154

>  <Formula>
C15H18O2

>  <MolWeight>
230.30222

>  <Cat>
S3280

>  <Name>
Linderene

>  <Synonyms>
Lindenenol

>  <Target>
Bacterial

>  <Form>
free base

>  <CAS>
26146-27-0

>  <URL>
http://www.selleckchem.com/products/linderene.html

$$$$
