LIQUID PRED (Lisinopril).cdx
 OpenBabel08302521383D

 60 61  0  0  0  0  0  0  0  0999 V2000
    6.3738    0.5596   -0.5964 C   0  0  0  0  0  0  0  0  0  0  0  0
    6.1890   -0.8226   -0.5524 C   0  0  0  0  0  0  0  0  0  0  0  0
    5.3635   -1.4478   -1.4855 C   0  0  0  0  0  0  0  0  0  0  0  0
    4.6196   -0.6803   -2.3771 C   0  0  0  0  0  0  0  0  0  0  0  0
    4.6502    0.7168   -2.2727 C   0  0  0  0  0  0  0  0  0  0  0  0
    5.6250    1.3329   -1.4782 C   0  0  0  0  0  0  0  0  0  0  0  0
    3.4008    1.4970   -2.6472 C   0  0  0  0  0  0  0  0  0  0  0  0
    2.5465    1.5921   -1.3391 C   0  0  0  0  0  0  0  0  0  0  0  0
    1.0846    2.0370   -1.5383 C   0  0  2  0  0  0  0  0  0  0  0  0
    0.3657    2.7273   -0.3793 N   0  0  0  0  0  0  0  0  0  0  0  0
   -0.1281    1.9289    0.7955 C   0  0  2  0  0  0  0  0  0  0  0  0
   -1.0888    2.7425    1.8012 C   0  0  0  0  0  0  0  0  0  0  0  0
   -0.7046    3.8812    2.5146 N   0  0  0  0  0  0  0  0  0  0  0  0
   -2.2165    2.2796    2.0081 O   0  0  0  0  0  0  0  0  0  0  0  0
   -1.4876    4.3198    3.6928 C   0  0  1  0  0  0  0  0  0  0  0  0
   -0.8857    5.6900    4.0373 C   0  0  0  0  0  0  0  0  0  0  0  0
    0.5153    5.6949    3.4405 C   0  0  0  0  0  0  0  0  0  0  0  0
    0.6396    4.3932    2.6509 C   0  0  0  0  0  0  0  0  0  0  0  0
   -3.0026    4.5165    3.6136 C   0  0  0  0  0  0  0  0  0  0  0  0
    0.9533    1.1661    1.5648 C   0  0  0  0  0  0  0  0  0  0  0  0
    0.2587    0.8859   -2.1468 C   0  0  0  0  0  0  0  0  0  0  0  0
   -1.0552    1.1827   -2.2199 O   0  0  0  0  0  0  0  0  0  0  0  0
    0.7145   -0.1691   -2.5797 O   0  0  0  0  0  0  0  0  0  0  0  0
   -3.6408    5.0180    2.7011 O   0  0  0  0  0  0  0  0  0  0  0  0
   -3.6142    4.1917    4.7798 O   0  0  0  0  0  0  0  0  0  0  0  0
    0.4282    0.1303    2.5705 C   0  0  0  0  0  0  0  0  0  0  0  0
   -0.4355   -0.9972    1.9794 C   0  0  0  0  0  0  0  0  0  0  0  0
    0.1823   -1.7861    0.8207 C   0  0  0  0  0  0  0  0  0  0  0  0
    1.4291   -2.4433    1.1966 N   0  0  0  0  0  0  0  0  0  0  0  0
    7.0427    1.0411    0.1123 H   0  0  0  0  0  0  0  0  0  0  0  0
    6.6776   -1.4125    0.2184 H   0  0  0  0  0  0  0  0  0  0  0  0
    5.2342   -2.5265   -1.4674 H   0  0  0  0  0  0  0  0  0  0  0  0
    3.9205   -1.1701   -3.0526 H   0  0  0  0  0  0  0  0  0  0  0  0
    5.7077    2.4161   -1.4453 H   0  0  0  0  0  0  0  0  0  0  0  0
    3.6656    2.4915   -3.0244 H   0  0  0  0  0  0  0  0  0  0  0  0
    2.8722    0.9774   -3.4555 H   0  0  0  0  0  0  0  0  0  0  0  0
    2.5569    0.5984   -0.8762 H   0  0  0  0  0  0  0  0  0  0  0  0
    3.0544    2.2709   -0.6442 H   0  0  0  0  0  0  0  0  0  0  0  0
    1.1140    2.8078   -2.3196 H   0  0  0  0  0  0  0  0  0  0  0  0
    0.9878    3.4545   -0.0333 H   0  0  0  0  0  0  0  0  0  0  0  0
   -0.8078    1.1775    0.3514 H   0  0  0  0  0  0  0  0  0  0  0  0
   -1.2677    3.6065    4.4988 H   0  0  0  0  0  0  0  0  0  0  0  0
   -1.4667    6.5107    3.5876 H   0  0  0  0  0  0  0  0  0  0  0  0
   -0.8815    5.8847    5.1191 H   0  0  0  0  0  0  0  0  0  0  0  0
    0.6393    6.5607    2.7813 H   0  0  0  0  0  0  0  0  0  0  0  0
    1.2820    5.7677    4.2200 H   0  0  0  0  0  0  0  0  0  0  0  0
    1.1272    4.5352    1.6868 H   0  0  0  0  0  0  0  0  0  0  0  0
    1.2143    3.6749    3.2430 H   0  0  0  0  0  0  0  0  0  0  0  0
    1.5960    0.6210    0.8786 H   0  0  0  0  0  0  0  0  0  0  0  0
    1.6148    1.8655    2.0888 H   0  0  0  0  0  0  0  0  0  0  0  0
   -1.2090    2.0437   -1.7664 H   0  0  0  0  0  0  0  0  0  0  0  0
   -4.5636    4.3876    4.6180 H   0  0  0  0  0  0  0  0  0  0  0  0
    1.2934   -0.3180    3.0735 H   0  0  0  0  0  0  0  0  0  0  0  0
   -0.1444    0.6361    3.3560 H   0  0  0  0  0  0  0  0  0  0  0  0
   -0.6829   -1.6958    2.7894 H   0  0  0  0  0  0  0  0  0  0  0  0
   -1.3937   -0.5837    1.6433 H   0  0  0  0  0  0  0  0  0  0  0  0
   -0.5301   -2.5516    0.4938 H   0  0  0  0  0  0  0  0  0  0  0  0
    0.3589   -1.1338   -0.0388 H   0  0  0  0  0  0  0  0  0  0  0  0
    1.7836   -2.9513    0.3845 H   0  0  0  0  0  0  0  0  0  0  0  0
    2.1405   -1.7452    1.4084 H   0  0  0  0  0  0  0  0  0  0  0  0
  1  2  2  0  0  0  0
  1 30  1  0  0  0  0
  2  3  1  0  0  0  0
  2 31  1  0  0  0  0
  3  4  2  0  0  0  0
  3 32  1  0  0  0  0
  4  5  1  0  0  0  0
  4 33  1  0  0  0  0
  5  6  2  0  0  0  0
  5  7  1  0  0  0  0
  6  1  1  0  0  0  0
  6 34  1  0  0  0  0
  7  8  1  0  0  0  0
  7 35  1  0  0  0  0
  7 36  1  0  0  0  0
  8 37  1  0  0  0  0
  8 38  1  0  0  0  0
  9 21  1  0  0  0  0
  9 39  1  6  0  0  0
  9 10  1  0  0  0  0
  9  8  1  0  0  0  0
 10 40  1  0  0  0  0
 11 20  1  0  0  0  0
 11 41  1  6  0  0  0
 11 12  1  0  0  0  0
 11 10  1  0  0  0  0
 12 13  1  0  0  0  0
 12 14  2  0  0  0  0
 13 15  1  0  0  0  0
 15 16  1  0  0  0  0
 15 42  1  1  0  0  0
 15 19  1  0  0  0  0
 16 17  1  0  0  0  0
 16 43  1  0  0  0  0
 16 44  1  0  0  0  0
 17 18  1  0  0  0  0
 17 45  1  0  0  0  0
 17 46  1  0  0  0  0
 18 13  1  0  0  0  0
 18 47  1  0  0  0  0
 18 48  1  0  0  0  0
 19 24  2  0  0  0  0
 19 25  1  0  0  0  0
 20 26  1  0  0  0  0
 20 49  1  0  0  0  0
 20 50  1  0  0  0  0
 21 22  1  0  0  0  0
 21 23  2  0  0  0  0
 22 51  1  0  0  0  0
 25 52  1  0  0  0  0
 26 27  1  0  0  0  0
 26 53  1  0  0  0  0
 26 54  1  0  0  0  0
 27 28  1  0  0  0  0
 27 55  1  0  0  0  0
 27 56  1  0  0  0  0
 28 29  1  0  0  0  0
 28 57  1  0  0  0  0
 28 58  1  0  0  0  0
 29 59  1  0  0  0  0
 29 60  1  0  0  0  0
M  END
>  <Mol_ID>
7733

>  <Formula>
C21H31N3O5

>  <MolWeight>
405.48794

>  <Cat>
S2076

>  <Name>
Lisinopril dihydrate

>  <Synonyms>
MK-521 dihydrate

>  <Target>
ACE,RAAS

>  <Form>
free base

>  <CAS>
83915-83-7

>  <URL>
http://selleckchem.com/products/lisinopril-zestril.html

$$$$
