Liranaftate
 OpenBabel08302521313D

 43 45  0  0  0  0  0  0  0  0999 V2000
   -2.2558    1.4893   -1.3332 C   0  0  0  0  0  0  0  0  0  0  0  0
   -0.9205    1.6436   -0.9143 C   0  0  0  0  0  0  0  0  0  0  0  0
   -0.3607    0.7029   -0.0287 C   0  0  0  0  0  0  0  0  0  0  0  0
   -1.1050   -0.3940    0.4204 C   0  0  0  0  0  0  0  0  0  0  0  0
   -2.4158   -0.5344   -0.0155 C   0  0  0  0  0  0  0  0  0  0  0  0
   -3.0038    0.4019   -0.8620 C   0  0  0  0  0  0  0  0  0  0  0  0
   -3.2792   -1.5640    0.4685 O   0  0  0  0  0  0  0  0  0  0  0  0
   -3.2158   -2.9717    0.4750 C   0  0  0  0  0  0  0  0  0  0  0  0
   -4.3139   -3.6053    1.0840 N   0  0  0  0  0  0  0  0  0  0  0  0
   -5.5073   -2.9078    1.4451 C   0  0  0  0  0  0  0  0  0  0  0  0
   -1.9430   -3.7362   -0.3084 S   0  0  0  0  0  0  0  0  0  0  0  0
   -4.4484   -5.0674    1.0698 C   0  0  0  0  0  0  0  0  0  0  0  0
   -2.8797    2.4092   -2.3529 C   0  0  0  0  0  0  0  0  0  0  0  0
   -2.1167    3.7134   -2.5712 C   0  0  0  0  0  0  0  0  0  0  0  0
   -0.6161    3.4622   -2.6498 C   0  0  0  0  0  0  0  0  0  0  0  0
   -0.1076    2.8406   -1.3489 C   0  0  0  0  0  0  0  0  0  0  0  0
   -5.4819   -1.6655    2.0740 C   0  0  0  0  0  0  0  0  0  0  0  0
   -6.6827   -1.0216    2.3651 C   0  0  0  0  0  0  0  0  0  0  0  0
   -7.8802   -1.6287    2.0205 C   0  0  0  0  0  0  0  0  0  0  0  0
   -7.8263   -2.8791    1.4262 C   0  0  0  0  0  0  0  0  0  0  0  0
   -6.6774   -3.5313    1.1664 N   0  0  0  0  0  0  0  0  0  0  0  0
   -9.0337   -3.4486    1.0817 O   0  0  0  0  0  0  0  0  0  0  0  0
   -8.8884   -4.7274    0.4704 C   0  0  0  0  0  0  0  0  0  0  0  0
    0.6653    0.8224    0.3134 H   0  0  0  0  0  0  0  0  0  0  0  0
   -0.6578   -1.1085    1.1038 H   0  0  0  0  0  0  0  0  0  0  0  0
   -4.0414    0.2771   -1.1593 H   0  0  0  0  0  0  0  0  0  0  0  0
   -4.7156   -5.4057    0.0642 H   0  0  0  0  0  0  0  0  0  0  0  0
   -3.5031   -5.5296    1.3702 H   0  0  0  0  0  0  0  0  0  0  0  0
   -5.2014   -5.4048    1.7911 H   0  0  0  0  0  0  0  0  0  0  0  0
   -3.9103    2.6457   -2.0628 H   0  0  0  0  0  0  0  0  0  0  0  0
   -2.9222    1.8613   -3.3030 H   0  0  0  0  0  0  0  0  0  0  0  0
   -2.3294    4.4115   -1.7524 H   0  0  0  0  0  0  0  0  0  0  0  0
   -2.4678    4.1890   -3.4947 H   0  0  0  0  0  0  0  0  0  0  0  0
   -0.3982    2.7945   -3.4929 H   0  0  0  0  0  0  0  0  0  0  0  0
   -0.0896    4.4041   -2.8412 H   0  0  0  0  0  0  0  0  0  0  0  0
    0.9434    2.5587   -1.4808 H   0  0  0  0  0  0  0  0  0  0  0  0
   -0.1495    3.5914   -0.5487 H   0  0  0  0  0  0  0  0  0  0  0  0
   -4.5515   -1.1998    2.3794 H   0  0  0  0  0  0  0  0  0  0  0  0
   -6.6788   -0.0478    2.8487 H   0  0  0  0  0  0  0  0  0  0  0  0
   -8.8329   -1.1486    2.2118 H   0  0  0  0  0  0  0  0  0  0  0  0
   -8.2353   -4.6885   -0.4094 H   0  0  0  0  0  0  0  0  0  0  0  0
   -8.5248   -5.4636    1.1960 H   0  0  0  0  0  0  0  0  0  0  0  0
   -9.8761   -5.0504    0.1285 H   0  0  0  0  0  0  0  0  0  0  0  0
  1  2  1  0  0  0  0
  1 13  1  0  0  0  0
  2  3  2  0  0  0  0
  3  4  1  0  0  0  0
  3 24  1  0  0  0  0
  4  5  2  0  0  0  0
  4 25  1  0  0  0  0
  5  6  1  0  0  0  0
  5  7  1  0  0  0  0
  6  1  2  0  0  0  0
  6 26  1  0  0  0  0
  7  8  1  0  0  0  0
  8  9  1  0  0  0  0
  8 11  2  0  0  0  0
  9 10  1  0  0  0  0
  9 12  1  0  0  0  0
 10 17  2  0  0  0  0
 12 27  1  0  0  0  0
 12 28  1  0  0  0  0
 12 29  1  0  0  0  0
 13 14  1  0  0  0  0
 13 30  1  0  0  0  0
 13 31  1  0  0  0  0
 14 15  1  0  0  0  0
 14 32  1  0  0  0  0
 14 33  1  0  0  0  0
 15 16  1  0  0  0  0
 15 34  1  0  0  0  0
 15 35  1  0  0  0  0
 16  2  1  0  0  0  0
 16 36  1  0  0  0  0
 16 37  1  0  0  0  0
 17 18  1  0  0  0  0
 17 38  1  0  0  0  0
 18 19  2  0  0  0  0
 18 39  1  0  0  0  0
 19 20  1  0  0  0  0
 19 40  1  0  0  0  0
 20 21  2  0  0  0  0
 20 22  1  0  0  0  0
 21 10  1  0  0  0  0
 22 23  1  0  0  0  0
 23 41  1  0  0  0  0
 23 42  1  0  0  0  0
 23 43  1  0  0  0  0
M  END
>  <Mol_ID>
5795

>  <Formula>
C18H20N2O2S

>  <MolWeight>
328.4286

>  <Cat>
S1997

>  <Name>
Liranaftate

>  <Synonyms>
M-732,Piritetrate

>  <Target>
Fungal

>  <Form>
Free Base

>  <CAS>
88678-31-3

>  <URL>
http://www.selleckchem.com/products/liranaftate.html

$$$$
