LJH685.cdx
 OpenBabel08302520003D

 49 52  0  0  0  0  0  0  0  0999 V2000
   -0.6281   -0.0195   -1.2672 C   0  0  0  0  0  0  0  0  0  0  0  0
    0.7500    0.1050   -1.2450 C   0  0  0  0  0  0  0  0  0  0  0  0
    1.4503    0.0434   -0.0207 C   0  0  0  0  0  0  0  0  0  0  0  0
    0.6941   -0.1637    1.1714 C   0  0  0  0  0  0  0  0  0  0  0  0
   -0.6984   -0.2660    1.0076 C   0  0  0  0  0  0  0  0  0  0  0  0
   -1.3713   -0.1979   -0.1651 N   0  0  0  0  0  0  0  0  0  0  0  0
    1.2545   -0.2737    2.5510 C   0  0  0  0  0  0  0  0  0  0  0  0
    2.9263    0.1992   -0.0633 C   0  0  0  0  0  0  0  0  0  0  0  0
    0.6480    0.3936    3.6359 C   0  0  0  0  0  0  0  0  0  0  0  0
    1.2031    0.3552    4.9180 C   0  0  0  0  0  0  0  0  0  0  0  0
    2.3896   -0.3189    5.1534 C   0  0  0  0  0  0  0  0  0  0  0  0
    2.9903   -1.0005    4.1056 C   0  0  0  0  0  0  0  0  0  0  0  0
    2.4184   -1.0165    2.8329 C   0  0  0  0  0  0  0  0  0  0  0  0
    3.6043    1.0010    0.8654 C   0  0  0  0  0  0  0  0  0  0  0  0
    5.0012    0.9848    0.9452 C   0  0  0  0  0  0  0  0  0  0  0  0
    5.8021    0.2572    0.0541 C   0  0  0  0  0  0  0  0  0  0  0  0
    5.1212   -0.4518   -0.9480 C   0  0  0  0  0  0  0  0  0  0  0  0
    3.7196   -0.4920   -0.9928 C   0  0  0  0  0  0  0  0  0  0  0  0
    4.1531   -1.6344    4.3184 F   0  0  0  0  0  0  0  0  0  0  0  0
    2.9600   -0.3031    6.3945 O   0  0  0  0  0  0  0  0  0  0  0  0
    0.5766    0.9982    5.9136 F   0  0  0  0  0  0  0  0  0  0  0  0
    7.1684    0.2175    0.2276 N   0  0  0  0  0  0  0  0  0  0  0  0
    8.0233   -0.7999   -0.4106 C   0  0  0  0  0  0  0  0  0  0  0  0
    9.2783   -1.0477    0.4703 C   0  0  0  0  0  0  0  0  0  0  0  0
   10.0304    0.1877    0.7917 N   0  0  0  0  0  0  0  0  0  0  0  0
    9.1088    1.1767    1.4001 C   0  0  0  0  0  0  0  0  0  0  0  0
    7.8901    1.4732    0.5053 C   0  0  0  0  0  0  0  0  0  0  0  0
   11.1317   -0.1009    1.7074 C   0  0  0  0  0  0  0  0  0  0  0  0
   -1.1799    0.0260   -2.2011 H   0  0  0  0  0  0  0  0  0  0  0  0
    1.2720    0.2648   -2.1831 H   0  0  0  0  0  0  0  0  0  0  0  0
   -1.3537   -0.4225    1.8627 H   0  0  0  0  0  0  0  0  0  0  0  0
   -0.2590    0.9793    3.5032 H   0  0  0  0  0  0  0  0  0  0  0  0
    2.9317   -1.5769    2.0552 H   0  0  0  0  0  0  0  0  0  0  0  0
    3.0592    1.5941    1.5891 H   0  0  0  0  0  0  0  0  0  0  0  0
    5.4534    1.5075    1.7860 H   0  0  0  0  0  0  0  0  0  0  0  0
    5.6752   -1.0076   -1.6961 H   0  0  0  0  0  0  0  0  0  0  0  0
    3.2567   -1.1040   -1.7670 H   0  0  0  0  0  0  0  0  0  0  0  0
    3.7974   -0.7997    6.3356 H   0  0  0  0  0  0  0  0  0  0  0  0
    8.3224   -0.4644   -1.4117 H   0  0  0  0  0  0  0  0  0  0  0  0
    7.4989   -1.7556   -0.5133 H   0  0  0  0  0  0  0  0  0  0  0  0
    9.9372   -1.7475   -0.0590 H   0  0  0  0  0  0  0  0  0  0  0  0
    8.9536   -1.5401    1.3989 H   0  0  0  0  0  0  0  0  0  0  0  0
    8.7521    0.8132    2.3741 H   0  0  0  0  0  0  0  0  0  0  0  0
    9.6454    2.1181    1.5781 H   0  0  0  0  0  0  0  0  0  0  0  0
    8.2166    1.9226   -0.4429 H   0  0  0  0  0  0  0  0  0  0  0  0
    7.2751    2.2252    1.0104 H   0  0  0  0  0  0  0  0  0  0  0  0
   11.6940    0.8132    1.9300 H   0  0  0  0  0  0  0  0  0  0  0  0
   10.7862   -0.5297    2.6542 H   0  0  0  0  0  0  0  0  0  0  0  0
   11.8360   -0.8006    1.2489 H   0  0  0  0  0  0  0  0  0  0  0  0
  1  2  2  0  0  0  0
  1 29  1  0  0  0  0
  2  3  1  0  0  0  0
  2 30  1  0  0  0  0
  3  4  2  0  0  0  0
  3  8  1  0  0  0  0
  4  5  1  0  0  0  0
  4  7  1  0  0  0  0
  5  6  2  0  0  0  0
  5 31  1  0  0  0  0
  6  1  1  0  0  0  0
  7  9  2  0  0  0  0
  8 14  2  0  0  0  0
  9 10  1  0  0  0  0
  9 32  1  0  0  0  0
 10 11  2  0  0  0  0
 10 21  1  0  0  0  0
 11 12  1  0  0  0  0
 11 20  1  0  0  0  0
 12 13  2  0  0  0  0
 12 19  1  0  0  0  0
 13  7  1  0  0  0  0
 13 33  1  0  0  0  0
 14 15  1  0  0  0  0
 14 34  1  0  0  0  0
 15 16  2  0  0  0  0
 15 35  1  0  0  0  0
 16 17  1  0  0  0  0
 16 22  1  0  0  0  0
 17 18  2  0  0  0  0
 17 36  1  0  0  0  0
 18  8  1  0  0  0  0
 18 37  1  0  0  0  0
 20 38  1  0  0  0  0
 22 23  1  0  0  0  0
 23 24  1  0  0  0  0
 23 39  1  0  0  0  0
 23 40  1  0  0  0  0
 24 25  1  0  0  0  0
 24 41  1  0  0  0  0
 24 42  1  0  0  0  0
 25 26  1  0  0  0  0
 25 28  1  0  0  0  0
 26 27  1  0  0  0  0
 26 43  1  0  0  0  0
 26 44  1  0  0  0  0
 27 22  1  0  0  0  0
 27 45  1  0  0  0  0
 27 46  1  0  0  0  0
 28 47  1  0  0  0  0
 28 48  1  0  0  0  0
 28 49  1  0  0  0  0
M  END
>  <Mol_ID>
2655

>  <Formula>
C22H21F2N3O

>  <MolWeight>
381.4184464

>  <Cat>
S7870

>  <Name>
LJH685

>  <Synonyms>
N/A

>  <Target>
S6 Kinase

>  <Form>
free base

>  <CAS>
1627710-50-2

>  <URL>
http://selleckchem.com/products/ljh685.html

$$$$
