LM-3244 FH1 (BRD-K4477).cdx
 OpenBabel08302519583D

 39 40  0  0  0  0  0  0  0  0999 V2000
    1.3387   -0.1862    0.1494 C   0  0  0  0  0  0  0  0  0  0  0  0
    2.8275   -0.4412    0.2108 C   0  0  0  0  0  0  0  0  0  0  0  0
    0.4945   -1.0997   -0.4906 C   0  0  0  0  0  0  0  0  0  0  0  0
    0.7714    0.9662    0.7104 C   0  0  0  0  0  0  0  0  0  0  0  0
    3.5964    0.1133   -0.9665 C   0  0  0  0  0  0  0  0  0  0  0  0
   -0.8833   -0.8705   -0.5657 C   0  0  0  0  0  0  0  0  0  0  0  0
   -0.6104    1.1921    0.6328 C   0  0  0  0  0  0  0  0  0  0  0  0
    4.0770    1.4265   -0.9376 C   0  0  0  0  0  0  0  0  0  0  0  0
    3.8312   -0.6573   -2.1127 C   0  0  0  0  0  0  0  0  0  0  0  0
   -1.4510    0.2761   -0.0145 C   0  0  0  0  0  0  0  0  0  0  0  0
    4.7882    1.9538   -2.0205 C   0  0  0  0  0  0  0  0  0  0  0  0
    4.5337   -0.1223   -3.2022 C   0  0  0  0  0  0  0  0  0  0  0  0
   -2.8305    0.5765   -0.0754 N   0  0  0  0  0  0  0  0  0  0  0  0
    5.0274    1.1874   -3.1619 C   0  0  0  0  0  0  0  0  0  0  0  0
   -3.8194   -0.1785   -0.6861 C   0  0  0  0  0  0  0  0  0  0  0  0
    5.7208    1.6737   -4.2907 N   0  0  0  0  0  0  0  0  0  0  0  0
   -5.1921    0.4427   -0.6039 C   0  0  0  0  0  0  0  0  0  0  0  0
   -3.6763   -1.2523   -1.2620 O   0  0  0  0  0  0  0  0  0  0  0  0
    6.4584    2.8416   -4.3601 C   0  0  0  0  0  0  0  0  0  0  0  0
    6.9863    3.1447   -5.7400 C   0  0  0  0  0  0  0  0  0  0  0  0
    6.7153    3.6014   -3.4309 O   0  0  0  0  0  0  0  0  0  0  0  0
    3.2322   -0.0233    1.1420 H   0  0  0  0  0  0  0  0  0  0  0  0
    3.0126   -1.5218    0.2924 H   0  0  0  0  0  0  0  0  0  0  0  0
    0.8995   -2.0027   -0.9397 H   0  0  0  0  0  0  0  0  0  0  0  0
    1.4011    1.6962    1.2132 H   0  0  0  0  0  0  0  0  0  0  0  0
   -1.4839   -1.6189   -1.0714 H   0  0  0  0  0  0  0  0  0  0  0  0
   -1.0112    2.0975    1.0813 H   0  0  0  0  0  0  0  0  0  0  0  0
    3.9022    2.0588   -0.0698 H   0  0  0  0  0  0  0  0  0  0  0  0
    3.4722   -1.6831   -2.1657 H   0  0  0  0  0  0  0  0  0  0  0  0
    5.1203    2.9841   -1.9487 H   0  0  0  0  0  0  0  0  0  0  0  0
    4.7023   -0.7549   -4.0701 H   0  0  0  0  0  0  0  0  0  0  0  0
   -3.1140    1.4459    0.3596 H   0  0  0  0  0  0  0  0  0  0  0  0
    5.7226    1.0717   -5.1044 H   0  0  0  0  0  0  0  0  0  0  0  0
   -5.5532    0.6314   -1.6195 H   0  0  0  0  0  0  0  0  0  0  0  0
   -5.8660   -0.2588   -0.1035 H   0  0  0  0  0  0  0  0  0  0  0  0
   -5.1957    1.3847   -0.0513 H   0  0  0  0  0  0  0  0  0  0  0  0
    6.6027    4.1202   -6.0537 H   0  0  0  0  0  0  0  0  0  0  0  0
    8.0790    3.1783   -5.7025 H   0  0  0  0  0  0  0  0  0  0  0  0
    6.6831    2.3986   -6.4781 H   0  0  0  0  0  0  0  0  0  0  0  0
  1  2  1  0  0  0  0
  1  3  2  0  0  0  0
  1  4  1  0  0  0  0
  2  5  1  0  0  0  0
  2 22  1  0  0  0  0
  2 23  1  0  0  0  0
  3  6  1  0  0  0  0
  3 24  1  0  0  0  0
  4  7  2  0  0  0  0
  4 25  1  0  0  0  0
  5  8  2  0  0  0  0
  5  9  1  0  0  0  0
  6 10  2  0  0  0  0
  6 26  1  0  0  0  0
  7 10  1  0  0  0  0
  7 27  1  0  0  0  0
  8 11  1  0  0  0  0
  8 28  1  0  0  0  0
  9 12  2  0  0  0  0
  9 29  1  0  0  0  0
 10 13  1  0  0  0  0
 11 14  2  0  0  0  0
 11 30  1  0  0  0  0
 12 14  1  0  0  0  0
 12 31  1  0  0  0  0
 13 15  1  0  0  0  0
 13 32  1  0  0  0  0
 14 16  1  0  0  0  0
 15 17  1  0  0  0  0
 15 18  2  0  0  0  0
 16 19  1  0  0  0  0
 16 33  1  0  0  0  0
 17 34  1  0  0  0  0
 17 35  1  0  0  0  0
 17 36  1  0  0  0  0
 19 20  1  0  0  0  0
 19 21  2  0  0  0  0
 20 37  1  0  0  0  0
 20 38  1  0  0  0  0
 20 39  1  0  0  0  0
M  END
>  <Mol_ID>
2361

>  <Formula>
C17H18N2O2

>  <MolWeight>
282.33702

>  <Cat>
S7450

>  <Name>
FH1 (BRD-K4477)

>  <Synonyms>
NSC 12407

>  <Target>
Others

>  <Form>
free base

>  <CAS>
2719-05-3

>  <URL>
http://selleckchem.com/products/fh1-brd-k4477.html

$$$$
