LM-3053 SKLB1002.cdx
 OpenBabel08302519583D

 33 35  0  0  0  0  0  0  0  0999 V2000
    2.6532    0.5640    0.2132 C   0  0  0  0  0  0  0  0  0  0  0  0
    2.5302   -0.8123    0.0082 C   0  0  0  0  0  0  0  0  0  0  0  0
    1.2452   -1.3375   -0.2144 C   0  0  0  0  0  0  0  0  0  0  0  0
    0.0780   -0.5777   -0.2271 C   0  0  0  0  0  0  0  0  0  0  0  0
    0.1881    0.7966   -0.0841 C   0  0  0  0  0  0  0  0  0  0  0  0
    1.4896    1.3595    0.1318 C   0  0  0  0  0  0  0  0  0  0  0  0
   -1.0814   -1.2297   -0.3273 N   0  0  0  0  0  0  0  0  0  0  0  0
   -2.1964   -0.4897   -0.2918 C   0  0  0  0  0  0  0  0  0  0  0  0
   -2.2437    0.8417   -0.2075 N   0  0  0  0  0  0  0  0  0  0  0  0
   -1.0521    1.4717   -0.1233 C   0  0  0  0  0  0  0  0  0  0  0  0
    3.7277    1.1930    0.7786 O   0  0  0  0  0  0  0  0  0  0  0  0
    4.8676    1.4011   -0.0426 C   0  0  0  0  0  0  0  0  0  0  0  0
    3.4328   -1.8319    0.0572 O   0  0  0  0  0  0  0  0  0  0  0  0
    4.8226   -1.6104    0.1511 C   0  0  0  0  0  0  0  0  0  0  0  0
   -1.1988    3.2332    0.1352 S   0  0  0  0  0  0  0  0  0  0  0  0
   -1.3051    3.7640   -1.5301 C   0  0  0  0  0  0  0  0  0  0  0  0
   -2.2247    5.1418   -1.9864 S   0  0  0  0  0  0  0  0  0  0  0  0
   -1.5276    4.9952   -3.5580 C   0  0  0  0  0  0  0  0  0  0  0  0
   -0.7392    3.9546   -3.6915 N   0  0  0  0  0  0  0  0  0  0  0  0
   -0.6029    3.2406   -2.5128 N   0  0  0  0  0  0  0  0  0  0  0  0
   -1.8160    6.0064   -4.6053 C   0  0  0  0  0  0  0  0  0  0  0  0
    1.1408   -2.4189   -0.3220 H   0  0  0  0  0  0  0  0  0  0  0  0
    1.5879    2.4288    0.3133 H   0  0  0  0  0  0  0  0  0  0  0  0
   -3.1415   -1.0213   -0.3163 H   0  0  0  0  0  0  0  0  0  0  0  0
    5.7229    0.9273    0.4578 H   0  0  0  0  0  0  0  0  0  0  0  0
    4.7678    1.0121   -1.0594 H   0  0  0  0  0  0  0  0  0  0  0  0
    5.0989    2.4681   -0.0902 H   0  0  0  0  0  0  0  0  0  0  0  0
    5.2035   -1.0990   -0.7364 H   0  0  0  0  0  0  0  0  0  0  0  0
    5.0815   -1.1069    1.0844 H   0  0  0  0  0  0  0  0  0  0  0  0
    5.3066   -2.5908    0.1682 H   0  0  0  0  0  0  0  0  0  0  0  0
   -2.8436    5.9140   -4.9691 H   0  0  0  0  0  0  0  0  0  0  0  0
   -1.6709    7.0209   -4.2250 H   0  0  0  0  0  0  0  0  0  0  0  0
   -1.1404    5.8719   -5.4576 H   0  0  0  0  0  0  0  0  0  0  0  0
  1  2  2  0  0  0  0
  1 11  1  0  0  0  0
  2  3  1  0  0  0  0
  2 13  1  0  0  0  0
  3  4  2  0  0  0  0
  3 22  1  0  0  0  0
  4  5  1  0  0  0  0
  4  7  1  0  0  0  0
  5  6  2  0  0  0  0
  6  1  1  0  0  0  0
  6 23  1  0  0  0  0
  7  8  2  0  0  0  0
  8  9  1  0  0  0  0
  8 24  1  0  0  0  0
  9 10  2  0  0  0  0
 10  5  1  0  0  0  0
 10 15  1  0  0  0  0
 11 12  1  0  0  0  0
 12 25  1  0  0  0  0
 12 26  1  0  0  0  0
 12 27  1  0  0  0  0
 13 14  1  0  0  0  0
 14 28  1  0  0  0  0
 14 29  1  0  0  0  0
 14 30  1  0  0  0  0
 15 16  1  0  0  0  0
 16 17  1  0  0  0  0
 17 18  1  0  0  0  0
 18 19  2  0  0  0  0
 18 21  1  0  0  0  0
 19 20  1  0  0  0  0
 20 16  2  0  0  0  0
 21 31  1  0  0  0  0
 21 32  1  0  0  0  0
 21 33  1  0  0  0  0
M  END
>  <Mol_ID>
2374

>  <Formula>
C13H12N4O2S2

>  <MolWeight>
320.38998

>  <Cat>
S7258

>  <Name>
SKLB1002

>  <Synonyms>
N/A

>  <Target>
VEGFR

>  <Form>
free base

>  <CAS>
1225451-84-2

>  <URL>
http://selleckchem.com/products/sklb1002.html

$$$$
