LM-3264 Triapine.cdx
 OpenBabel08302519583D

 22 22  0  0  0  0  0  0  0  0999 V2000
    0.2265   -1.0849    0.0237 C   0  0  0  0  0  0  0  0  0  0  0  0
    0.9983    0.0862    0.0030 C   0  0  0  0  0  0  0  0  0  0  0  0
    0.2857    1.2903    0.0317 C   0  0  0  0  0  0  0  0  0  0  0  0
   -1.1078    1.2928   -0.0096 C   0  0  0  0  0  0  0  0  0  0  0  0
   -1.7684    0.0786   -0.0494 C   0  0  0  0  0  0  0  0  0  0  0  0
   -1.1358   -1.1135   -0.0285 N   0  0  0  0  0  0  0  0  0  0  0  0
    0.8166   -2.4477    0.0752 C   0  0  0  0  0  0  0  0  0  0  0  0
    2.0863   -2.7318    0.1312 N   0  0  0  0  0  0  0  0  0  0  0  0
    2.3251   -4.0839    0.1608 N   0  0  0  0  0  0  0  0  0  0  0  0
    3.5628   -4.6434    0.2509 C   0  0  0  0  0  0  0  0  0  0  0  0
    3.7607   -6.2933    0.2518 S   0  0  0  0  0  0  0  0  0  0  0  0
    4.6223   -3.8112    0.3224 N   0  0  0  0  0  0  0  0  0  0  0  0
    2.3906    0.1158    0.1774 N   0  0  0  0  0  0  0  0  0  0  0  0
    0.8146    2.2379    0.0986 H   0  0  0  0  0  0  0  0  0  0  0  0
   -1.6645    2.2248    0.0040 H   0  0  0  0  0  0  0  0  0  0  0  0
   -2.8527    0.0307   -0.0841 H   0  0  0  0  0  0  0  0  0  0  0  0
    0.0593   -3.2548    0.0592 H   0  0  0  0  0  0  0  0  0  0  0  0
    1.5443   -4.7299    0.1089 H   0  0  0  0  0  0  0  0  0  0  0  0
    4.4458   -2.8572    0.6040 H   0  0  0  0  0  0  0  0  0  0  0  0
    5.5354   -4.2121    0.4983 H   0  0  0  0  0  0  0  0  0  0  0  0
    2.8231   -0.7773   -0.0799 H   0  0  0  0  0  0  0  0  0  0  0  0
    2.8513    0.9129   -0.2480 H   0  0  0  0  0  0  0  0  0  0  0  0
  1  2  2  0  0  0  0
  1  6  1  0  0  0  0
  1  7  1  0  0  0  0
  2  3  1  0  0  0  0
  2 13  1  0  0  0  0
  3  4  2  0  0  0  0
  3 14  1  0  0  0  0
  4  5  1  0  0  0  0
  4 15  1  0  0  0  0
  5  6  2  0  0  0  0
  5 16  1  0  0  0  0
  7  8  2  0  0  0  0
  7 17  1  0  0  0  0
  8  9  1  0  0  0  0
  9 10  1  0  0  0  0
  9 18  1  0  0  0  0
 10 11  2  0  0  0  0
 10 12  1  0  0  0  0
 12 19  1  0  0  0  0
 12 20  1  0  0  0  0
 13 21  1  0  0  0  0
 13 22  1  0  0  0  0
M  END
>  <Mol_ID>
2371

>  <Formula>
C7H9N5S

>  <MolWeight>
195.24486

>  <Cat>
S7470

>  <Name>
Triapine

>  <Synonyms>
3-AP

>  <Target>
DNA/RNA Synthesis,RNR

>  <Form>
free base

>  <CAS>
200933-27-3

>  <URL>
http://selleckchem.com/products/triapine.html

$$$$
