LM-3134 CH5138303.cdx
 OpenBabel08302519583D

 46 49  0  0  0  0  0  0  0  0999 V2000
   -0.2631    0.1108    0.9851 C   0  0  0  0  0  0  0  0  0  0  0  0
    0.5152    1.0540    0.3197 C   0  0  0  0  0  0  0  0  0  0  0  0
   -0.1038    2.0427   -0.4489 C   0  0  0  0  0  0  0  0  0  0  0  0
   -1.5212    2.1184   -0.5417 C   0  0  0  0  0  0  0  0  0  0  0  0
   -2.3268    1.1397    0.1371 C   0  0  0  0  0  0  0  0  0  0  0  0
   -1.6523    0.1471    0.8825 C   0  0  0  0  0  0  0  0  0  0  0  0
   -3.8137    1.1304    0.1268 C   0  0  0  0  0  0  0  0  0  0  0  0
   -4.4664    1.6015   -0.9406 N   0  0  0  0  0  0  0  0  0  0  0  0
   -5.7857    1.6391   -0.8265 C   0  0  0  0  0  0  0  0  0  0  0  0
   -6.4676    1.2071    0.2297 N   0  0  0  0  0  0  0  0  0  0  0  0
   -5.7344    0.7392    1.2201 C   0  0  0  0  0  0  0  0  0  0  0  0
   -4.4168    0.6575    1.2186 N   0  0  0  0  0  0  0  0  0  0  0  0
    0.7072    2.9830   -1.1108 C   0  0  0  0  0  0  0  0  0  0  0  0
    0.1314    4.0046   -1.8753 C   0  0  0  0  0  0  0  0  0  0  0  0
   -1.2427    4.1090   -1.9653 C   0  0  0  0  0  0  0  0  0  0  0  0
   -2.0466    3.1947   -1.2963 C   0  0  0  0  0  0  0  0  0  0  0  0
    2.0135    1.0386    0.4921 C   0  0  0  0  0  0  0  0  0  0  0  0
    2.7481    1.7106   -0.5224 O   0  0  0  0  0  0  0  0  0  0  0  0
    2.2083    2.9400   -0.9871 C   0  0  0  0  0  0  0  0  0  0  0  0
   -6.4003    0.2692    2.3288 N   0  0  0  0  0  0  0  0  0  0  0  0
   -6.7867    2.2915   -2.1467 S   0  0  0  0  0  0  0  0  0  0  0  0
   -5.5850    3.1745   -3.1995 C   0  0  0  0  0  0  0  0  0  0  0  0
   -4.7032    2.2941   -4.0848 C   0  0  0  0  0  0  0  0  0  0  0  0
   -5.4583    1.2779   -4.9397 C   0  0  0  0  0  0  0  0  0  0  0  0
   -4.5030    0.4590   -5.7932 C   0  0  0  0  0  0  0  0  0  0  0  0
   -5.1122   -0.4713   -6.5781 N   0  0  0  0  0  0  0  0  0  0  0  0
   -3.2899    0.5707   -5.7784 O   0  0  0  0  0  0  0  0  0  0  0  0
    0.2091   -0.6661    1.5853 H   0  0  0  0  0  0  0  0  0  0  0  0
   -2.2233   -0.6196    1.4112 H   0  0  0  0  0  0  0  0  0  0  0  0
    0.7576    4.7256   -2.3965 H   0  0  0  0  0  0  0  0  0  0  0  0
   -1.6986    4.8980   -2.5591 H   0  0  0  0  0  0  0  0  0  0  0  0
   -3.1133    3.3543   -1.3765 H   0  0  0  0  0  0  0  0  0  0  0  0
    2.3589   -0.0010    0.4455 H   0  0  0  0  0  0  0  0  0  0  0  0
    2.2833    1.4296    1.4808 H   0  0  0  0  0  0  0  0  0  0  0  0
    2.5586    3.7724   -0.3645 H   0  0  0  0  0  0  0  0  0  0  0  0
    2.6365    3.0750   -1.9876 H   0  0  0  0  0  0  0  0  0  0  0  0
   -5.8506   -0.4130    2.8269 H   0  0  0  0  0  0  0  0  0  0  0  0
   -7.3481    0.0228    2.1045 H   0  0  0  0  0  0  0  0  0  0  0  0
   -6.1788    3.8264   -3.8524 H   0  0  0  0  0  0  0  0  0  0  0  0
   -4.9726    3.8449   -2.5889 H   0  0  0  0  0  0  0  0  0  0  0  0
   -4.1272    2.9549   -4.7474 H   0  0  0  0  0  0  0  0  0  0  0  0
   -3.9571    1.7736   -3.4725 H   0  0  0  0  0  0  0  0  0  0  0  0
   -6.0223    0.5792   -4.3127 H   0  0  0  0  0  0  0  0  0  0  0  0
   -6.1597    1.7915   -5.6070 H   0  0  0  0  0  0  0  0  0  0  0  0
   -4.5152   -1.0241   -7.1777 H   0  0  0  0  0  0  0  0  0  0  0  0
   -6.1129   -0.5092   -6.7137 H   0  0  0  0  0  0  0  0  0  0  0  0
  1  2  2  0  0  0  0
  1 28  1  0  0  0  0
  2  3  1  0  0  0  0
  2 17  1  0  0  0  0
  3  4  2  0  0  0  0
  3 13  1  0  0  0  0
  4  5  1  0  0  0  0
  5  6  2  0  0  0  0
  5  7  1  0  0  0  0
  6  1  1  0  0  0  0
  6 29  1  0  0  0  0
  7  8  2  0  0  0  0
  8  9  1  0  0  0  0
  9 10  2  0  0  0  0
  9 21  1  0  0  0  0
 10 11  1  0  0  0  0
 11 12  2  0  0  0  0
 11 20  1  0  0  0  0
 12  7  1  0  0  0  0
 13 14  2  0  0  0  0
 14 15  1  0  0  0  0
 14 30  1  0  0  0  0
 15 16  2  0  0  0  0
 15 31  1  0  0  0  0
 16  4  1  0  0  0  0
 16 32  1  0  0  0  0
 17 18  1  0  0  0  0
 17 33  1  0  0  0  0
 17 34  1  0  0  0  0
 18 19  1  0  0  0  0
 19 13  1  0  0  0  0
 19 35  1  0  0  0  0
 19 36  1  0  0  0  0
 20 37  1  0  0  0  0
 20 38  1  0  0  0  0
 21 22  1  0  0  0  0
 22 23  1  0  0  0  0
 22 39  1  0  0  0  0
 22 40  1  0  0  0  0
 23 24  1  0  0  0  0
 23 41  1  0  0  0  0
 23 42  1  0  0  0  0
 24 25  1  0  0  0  0
 24 43  1  0  0  0  0
 24 44  1  0  0  0  0
 25 26  1  0  0  0  0
 25 27  2  0  0  0  0
 26 45  1  0  0  0  0
 26 46  1  0  0  0  0
M  END
>  <Mol_ID>
2407

>  <Formula>
C19H18ClN5O2S

>  <MolWeight>
415.89652

>  <Cat>
S7340

>  <Name>
CH5138303

>  <Synonyms>
N/A

>  <Target>
HSP (HSP90)

>  <Form>
free base

>  <CAS>
959763-06-5

>  <URL>
http://selleckchem.com/products/ch5138303.html

$$$$
