LM-5005.cdx
 OpenBabel08302520433D

 65 68  0  0  0  0  0  0  0  0999 V2000
    1.4338   -0.3291   -0.0444 C   0  0  0  0  0  0  0  0  0  0  0  0
    0.5070   -1.3783   -0.0336 C   0  0  0  0  0  0  0  0  0  0  0  0
   -0.8549   -1.0792    0.0251 C   0  0  0  0  0  0  0  0  0  0  0  0
   -1.2794    0.2476    0.1522 C   0  0  0  0  0  0  0  0  0  0  0  0
   -0.3583    1.2971    0.2176 C   0  0  0  0  0  0  0  0  0  0  0  0
    1.0027    0.9988    0.0849 C   0  0  0  0  0  0  0  0  0  0  0  0
    1.0128   -2.7784   -0.0702 C   0  0  0  0  0  0  0  0  0  0  0  0
    0.1959   -3.8244    0.5961 C   0  0  0  0  0  0  0  0  0  0  0  0
    0.6048   -5.1033    0.6036 C   0  0  0  0  0  0  0  0  0  0  0  0
   -0.1527   -6.1817    1.2527 C   0  0  0  0  0  0  0  0  0  0  0  0
   -0.7245    2.6422    0.4537 N   0  0  0  0  0  0  0  0  0  0  0  0
   -1.9995    3.1207    0.6814 C   0  0  0  0  0  0  0  0  0  0  0  0
   -1.9939    4.4433    1.0734 N   0  0  0  0  0  0  0  0  0  0  0  0
   -3.2601    5.1187    1.3516 C   0  0  0  0  0  0  0  0  0  0  0  0
   -3.9811    4.5559    2.5980 C   0  0  0  0  0  0  0  0  0  0  0  0
   -3.0386    2.4766    0.6031 O   0  0  0  0  0  0  0  0  0  0  0  0
    2.0985   -3.0277   -0.5844 O   0  0  0  0  0  0  0  0  0  0  0  0
    0.3460   -7.4759    1.2422 C   0  0  0  0  0  0  0  0  0  0  0  0
   -0.4012   -8.4703    1.8512 C   0  0  0  0  0  0  0  0  0  0  0  0
   -1.6086   -8.1326    2.4557 C   0  0  0  0  0  0  0  0  0  0  0  0
   -2.0609   -6.8118    2.4448 C   0  0  0  0  0  0  0  0  0  0  0  0
   -1.3363   -5.8495    1.8319 N   0  0  0  0  0  0  0  0  0  0  0  0
   -3.2794   -6.4909    3.0104 N   0  0  0  0  0  0  0  0  0  0  0  0
   -3.9976   -5.2826    2.5869 C   0  0  0  0  0  0  0  0  0  0  0  0
   -4.1124   -4.2603    3.7259 C   0  0  0  0  0  0  0  0  0  0  0  0
   -4.6392   -4.8548    4.9243 O   0  0  0  0  0  0  0  0  0  0  0  0
   -3.7719   -5.9093    5.3648 C   0  0  0  0  0  0  0  0  0  0  0  0
   -3.6677   -7.0305    4.3189 C   0  0  0  0  0  0  0  0  0  0  0  0
   -5.2561    5.2166    2.9568 N   0  0  0  0  0  0  0  0  0  0  0  0
   -5.7994    4.6230    4.2084 C   0  0  0  0  0  0  0  0  0  0  0  0
   -6.3053    3.1772    4.0378 C   0  0  0  0  0  0  0  0  0  0  0  0
   -7.3214    3.1054    3.0299 O   0  0  0  0  0  0  0  0  0  0  0  0
   -6.8445    3.6202    1.7786 C   0  0  0  0  0  0  0  0  0  0  0  0
   -6.3067    5.0565    1.9223 C   0  0  0  0  0  0  0  0  0  0  0  0
    2.4974   -0.5456   -0.1279 H   0  0  0  0  0  0  0  0  0  0  0  0
   -1.6138   -1.8553   -0.0216 H   0  0  0  0  0  0  0  0  0  0  0  0
   -2.3496    0.4184    0.2155 H   0  0  0  0  0  0  0  0  0  0  0  0
    1.7534    1.7852    0.0988 H   0  0  0  0  0  0  0  0  0  0  0  0
   -0.7222   -3.5398    1.0994 H   0  0  0  0  0  0  0  0  0  0  0  0
    1.5397   -5.3824    0.1222 H   0  0  0  0  0  0  0  0  0  0  0  0
    0.0281    3.3038    0.5607 H   0  0  0  0  0  0  0  0  0  0  0  0
   -1.2483    5.0185    0.7116 H   0  0  0  0  0  0  0  0  0  0  0  0
   -3.0345    6.1806    1.4965 H   0  0  0  0  0  0  0  0  0  0  0  0
   -3.8797    5.0167    0.4550 H   0  0  0  0  0  0  0  0  0  0  0  0
   -4.1255    3.4802    2.4765 H   0  0  0  0  0  0  0  0  0  0  0  0
   -3.2894    4.6671    3.4440 H   0  0  0  0  0  0  0  0  0  0  0  0
    1.2891   -7.7175    0.7634 H   0  0  0  0  0  0  0  0  0  0  0  0
   -0.0615   -9.5017    1.8447 H   0  0  0  0  0  0  0  0  0  0  0  0
   -2.2152   -8.9184    2.8929 H   0  0  0  0  0  0  0  0  0  0  0  0
   -5.0097   -5.5989    2.3048 H   0  0  0  0  0  0  0  0  0  0  0  0
   -3.5639   -4.8070    1.7001 H   0  0  0  0  0  0  0  0  0  0  0  0
   -3.1436   -3.8009    3.9517 H   0  0  0  0  0  0  0  0  0  0  0  0
   -4.8001   -3.4602    3.4323 H   0  0  0  0  0  0  0  0  0  0  0  0
   -4.1858   -6.3119    6.2950 H   0  0  0  0  0  0  0  0  0  0  0  0
   -2.7862   -5.4875    5.5950 H   0  0  0  0  0  0  0  0  0  0  0  0
   -4.6465   -7.5099    4.2042 H   0  0  0  0  0  0  0  0  0  0  0  0
   -2.9717   -7.7877    4.6955 H   0  0  0  0  0  0  0  0  0  0  0  0
   -6.6447    5.2465    4.5301 H   0  0  0  0  0  0  0  0  0  0  0  0
   -5.0567    4.6777    5.0124 H   0  0  0  0  0  0  0  0  0  0  0  0
   -5.4962    2.4815    3.7881 H   0  0  0  0  0  0  0  0  0  0  0  0
   -6.7453    2.8265    4.9765 H   0  0  0  0  0  0  0  0  0  0  0  0
   -7.6931    3.6188    1.0864 H   0  0  0  0  0  0  0  0  0  0  0  0
   -6.0876    2.9424    1.3694 H   0  0  0  0  0  0  0  0  0  0  0  0
   -7.1450    5.7045    2.2139 H   0  0  0  0  0  0  0  0  0  0  0  0
   -5.9711    5.4380    0.9532 H   0  0  0  0  0  0  0  0  0  0  0  0
  1  2  2  0  0  0  0
  1 35  1  0  0  0  0
  2  3  1  0  0  0  0
  2  7  1  0  0  0  0
  3  4  2  0  0  0  0
  3 36  1  0  0  0  0
  4  5  1  0  0  0  0
  4 37  1  0  0  0  0
  5  6  2  0  0  0  0
  5 11  1  0  0  0  0
  6  1  1  0  0  0  0
  6 38  1  0  0  0  0
  7  8  1  0  0  0  0
  7 17  2  0  0  0  0
  8  9  2  0  0  0  0
  8 39  1  0  0  0  0
  9 10  1  0  0  0  0
  9 40  1  0  0  0  0
 10 18  2  0  0  0  0
 11 12  1  0  0  0  0
 11 41  1  0  0  0  0
 12 13  1  0  0  0  0
 12 16  2  0  0  0  0
 13 14  1  0  0  0  0
 13 42  1  0  0  0  0
 14 15  1  0  0  0  0
 14 43  1  0  0  0  0
 14 44  1  0  0  0  0
 15 29  1  0  0  0  0
 15 45  1  0  0  0  0
 15 46  1  0  0  0  0
 18 19  1  0  0  0  0
 18 47  1  0  0  0  0
 19 20  2  0  0  0  0
 19 48  1  0  0  0  0
 20 21  1  0  0  0  0
 20 49  1  0  0  0  0
 21 22  2  0  0  0  0
 21 23  1  0  0  0  0
 22 10  1  0  0  0  0
 23 24  1  0  0  0  0
 24 25  1  0  0  0  0
 24 50  1  0  0  0  0
 24 51  1  0  0  0  0
 25 26  1  0  0  0  0
 25 52  1  0  0  0  0
 25 53  1  0  0  0  0
 26 27  1  0  0  0  0
 27 28  1  0  0  0  0
 27 54  1  0  0  0  0
 27 55  1  0  0  0  0
 28 23  1  0  0  0  0
 28 56  1  0  0  0  0
 28 57  1  0  0  0  0
 29 30  1  0  0  0  0
 30 31  1  0  0  0  0
 30 58  1  0  0  0  0
 30 59  1  0  0  0  0
 31 32  1  0  0  0  0
 31 60  1  0  0  0  0
 31 61  1  0  0  0  0
 32 33  1  0  0  0  0
 33 34  1  0  0  0  0
 33 62  1  0  0  0  0
 33 63  1  0  0  0  0
 34 29  1  0  0  0  0
 34 64  1  0  0  0  0
 34 65  1  0  0  0  0
M  END
>  <Mol_ID>
4140

>  <Formula>
C25H31N5O4

>  <MolWeight>
465.54474

>  <Cat>
S8305

>  <Name>
TRC051384

>  <Synonyms>
N/A

>  <Target>
HSP (HSP90)

>  <Form>
free base

>  <CAS>
867164-40-7

>  <URL>
http://selleckchem.com/products/trc051384.html

$$$$
