Lonidamine.cdx
 OpenBabel08302521453D

 31 33  0  0  0  0  0  0  0  0999 V2000
   -2.2027   -0.5830   -0.3149 C   0  0  0  0  0  0  0  0  0  0  0  0
   -2.2102    0.7932   -0.0987 C   0  0  0  0  0  0  0  0  0  0  0  0
   -1.0110    1.4990    0.0376 C   0  0  0  0  0  0  0  0  0  0  0  0
    0.2083    0.7966   -0.0165 C   0  0  0  0  0  0  0  0  0  0  0  0
    0.1906   -0.5850   -0.1917 C   0  0  0  0  0  0  0  0  0  0  0  0
   -1.0027   -1.3007   -0.3691 C   0  0  0  0  0  0  0  0  0  0  0  0
    1.5824    1.1427    0.0608 C   0  0  0  0  0  0  0  0  0  0  0  0
    2.3816    0.0542    0.0122 N   0  0  0  0  0  0  0  0  0  0  0  0
    1.5076   -0.9793   -0.1172 N   0  0  0  0  0  0  0  0  0  0  0  0
    1.9986   -2.3545    0.0019 C   0  0  0  0  0  0  0  0  0  0  0  0
    2.3088   -2.9827   -1.3329 C   0  0  0  0  0  0  0  0  0  0  0  0
    2.1731    2.4773    0.1879 C   0  0  0  0  0  0  0  0  0  0  0  0
    3.5371    2.4367    0.2090 O   0  0  0  0  0  0  0  0  0  0  0  0
    1.5449    3.5240    0.2601 O   0  0  0  0  0  0  0  0  0  0  0  0
    3.2651   -2.4175   -2.1904 C   0  0  0  0  0  0  0  0  0  0  0  0
    3.5526   -3.0063   -3.4224 C   0  0  0  0  0  0  0  0  0  0  0  0
    2.9016   -4.1762   -3.8055 C   0  0  0  0  0  0  0  0  0  0  0  0
    1.9729   -4.7664   -2.9511 C   0  0  0  0  0  0  0  0  0  0  0  0
    1.6796   -4.1761   -1.7199 C   0  0  0  0  0  0  0  0  0  0  0  0
   -3.1473   -1.1084   -0.4408 H   0  0  0  0  0  0  0  0  0  0  0  0
   -3.1554    1.3288   -0.0419 H   0  0  0  0  0  0  0  0  0  0  0  0
   -1.0241    2.5756    0.1935 H   0  0  0  0  0  0  0  0  0  0  0  0
   -1.0092   -2.3714   -0.5445 H   0  0  0  0  0  0  0  0  0  0  0  0
    2.8936   -2.3361    0.6315 H   0  0  0  0  0  0  0  0  0  0  0  0
    1.2324   -2.9201    0.5441 H   0  0  0  0  0  0  0  0  0  0  0  0
    3.7802    1.4843    0.1320 H   0  0  0  0  0  0  0  0  0  0  0  0
    3.7927   -1.5087   -1.9059 H   0  0  0  0  0  0  0  0  0  0  0  0
    4.2852   -2.5499   -4.0833 H   0  0  0  0  0  0  0  0  0  0  0  0
    3.1215   -4.6297   -4.7686 H   0  0  0  0  0  0  0  0  0  0  0  0
    1.4768   -5.6880   -3.2455 H   0  0  0  0  0  0  0  0  0  0  0  0
    0.9567   -4.6609   -1.0670 H   0  0  0  0  0  0  0  0  0  0  0  0
  1  2  2  0  0  0  0
  1 20  1  0  0  0  0
  2  3  1  0  0  0  0
  2 21  1  0  0  0  0
  3  4  2  0  0  0  0
  3 22  1  0  0  0  0
  4  5  1  0  0  0  0
  4  7  1  0  0  0  0
  5  6  2  0  0  0  0
  6  1  1  0  0  0  0
  6 23  1  0  0  0  0
  7  8  2  0  0  0  0
  7 12  1  0  0  0  0
  8  9  1  0  0  0  0
  9  5  1  0  0  0  0
  9 10  1  0  0  0  0
 10 11  1  0  0  0  0
 10 24  1  0  0  0  0
 10 25  1  0  0  0  0
 11 15  2  0  0  0  0
 12 13  1  0  0  0  0
 12 14  2  0  0  0  0
 13 26  1  0  0  0  0
 15 16  1  0  0  0  0
 15 27  1  0  0  0  0
 16 17  2  0  0  0  0
 16 28  1  0  0  0  0
 17 18  1  0  0  0  0
 17 29  1  0  0  0  0
 18 19  2  0  0  0  0
 18 30  1  0  0  0  0
 19 11  1  0  0  0  0
 19 31  1  0  0  0  0
M  END
>  <Mol_ID>
935

>  <Formula>
C15H10Cl2N2O2

>  <MolWeight>
321.1581

>  <Cat>
S2610

>  <Name>
Lonidamine (AF-1890)

>  <Synonyms>
Diclondazolic Acid, DICA

>  <Target>
Carbohydrate Metabolism,Others

>  <Form>
free base

>  <CAS>
50264-69-2

>  <URL>
http://selleckchem.com/products/lonidamine.html

$$$$
