Lotusine hydroxide
 OpenBabel08302521493D

 47 49  0  0  1  0  0  0  0  0999 V2000
    3.2328    0.5886   -1.2943 C   0  0  0  0  0  0  0  0  0  0  0  0
    4.2622   -2.0585   -0.0433 C   0  0  0  0  0  0  0  0  0  0  0  0
    1.9373   -2.3050   -0.8599 C   0  0  0  0  0  0  0  0  0  0  0  0
    3.2871    4.2533    2.2427 O   0  0  0  0  0  0  0  0  0  0  0  0
    3.6780    5.1274    3.2940 C   0  0  0  0  0  0  0  0  0  0  0  0
    4.2638    2.8937    4.6896 O   0  0  0  0  0  0  0  0  0  0  0  0
    8.8754    0.2274   -1.6710 O   0  0  0  0  0  0  0  0  0  0  0  0
    2.9872    0.7500    1.3221 C   0  0  0  0  0  0  0  0  0  0  0  0
    2.6395   -0.0125    0.0397 C   0  0  2  0  0  0  0  0  0  0  0  0
    3.3201    0.0933    2.5180 C   0  0  0  0  0  0  0  0  0  0  0  0
    2.9322    2.1571    1.3501 C   0  0  0  0  0  0  0  0  0  0  0  0
    2.8230   -1.5854    0.1559 N   0  3  0  0  0  0  0  0  0  0  0  0
    3.7553    0.8328    3.6316 C   0  0  0  0  0  0  0  0  0  0  0  0
    3.2255   -1.4011    2.6471 C   0  0  0  0  0  0  0  0  0  0  0  0
    3.3524    2.9053    2.4617 C   0  0  0  0  0  0  0  0  0  0  0  0
    2.3475   -2.0099    1.5589 C   0  0  0  0  0  0  0  0  0  0  0  0
    3.7947    2.2275    3.5954 C   0  0  0  0  0  0  0  0  0  0  0  0
    4.7393    0.6190   -1.4676 C   0  0  0  0  0  0  0  0  0  0  0  0
    5.3493   -0.1385   -2.4815 C   0  0  0  0  0  0  0  0  0  0  0  0
    5.5643    1.3796   -0.6274 C   0  0  0  0  0  0  0  0  0  0  0  0
    6.7399   -0.2484   -2.5431 C   0  0  0  0  0  0  0  0  0  0  0  0
    6.9555    1.2724   -0.6891 C   0  0  0  0  0  0  0  0  0  0  0  0
    7.5308    0.4261   -1.6254 C   0  0  0  0  0  0  0  0  0  0  0  0
    2.7890    0.0559   -2.1437 H   0  0  0  0  0  0  0  0  0  0  0  0
    2.8747    1.6194   -1.4200 H   0  0  0  0  0  0  0  0  0  0  0  0
    4.3617   -3.0542    0.4014 H   0  0  0  0  0  0  0  0  0  0  0  0
    4.4592   -2.1477   -1.1115 H   0  0  0  0  0  0  0  0  0  0  0  0
    4.9482   -1.3649    0.4458 H   0  0  0  0  0  0  0  0  0  0  0  0
    0.8940   -2.0404   -0.6657 H   0  0  0  0  0  0  0  0  0  0  0  0
    2.2304   -2.0068   -1.8682 H   0  0  0  0  0  0  0  0  0  0  0  0
    2.0831   -3.3834   -0.7376 H   0  0  0  0  0  0  0  0  0  0  0  0
    3.0538    4.9872    4.1822 H   0  0  0  0  0  0  0  0  0  0  0  0
    4.7441    5.0229    3.5185 H   0  0  0  0  0  0  0  0  0  0  0  0
    3.5198    6.1530    2.9461 H   0  0  0  0  0  0  0  0  0  0  0  0
    4.5795    2.2657    5.3598 H   0  0  0  0  0  0  0  0  0  0  0  0
    9.2991    0.7425   -0.9636 H   0  0  0  0  0  0  0  0  0  0  0  0
    1.5482    0.0990   -0.0451 H   0  0  0  0  0  0  0  0  0  0  0  0
    2.5986    2.7192    0.4780 H   0  0  0  0  0  0  0  0  0  0  0  0
    4.0573    0.3069    4.5354 H   0  0  0  0  0  0  0  0  0  0  0  0
    2.7843   -1.6557    3.6186 H   0  0  0  0  0  0  0  0  0  0  0  0
    4.2336   -1.8304    2.6307 H   0  0  0  0  0  0  0  0  0  0  0  0
    1.3046   -1.6826    1.6579 H   0  0  0  0  0  0  0  0  0  0  0  0
    2.3745   -3.1049    1.6073 H   0  0  0  0  0  0  0  0  0  0  0  0
    4.7543   -0.6800   -3.2121 H   0  0  0  0  0  0  0  0  0  0  0  0
    5.1564    2.0731    0.1002 H   0  0  0  0  0  0  0  0  0  0  0  0
    7.2100   -0.8694   -3.3029 H   0  0  0  0  0  0  0  0  0  0  0  0
    7.5630    1.8514   -0.0005 H   0  0  0  0  0  0  0  0  0  0  0  0
  1 18  1  0  0  0  0
  1 24  1  0  0  0  0
  1 25  1  0  0  0  0
  2 12  1  0  0  0  0
  2 26  1  0  0  0  0
  2 27  1  0  0  0  0
  2 28  1  0  0  0  0
  3 12  1  0  0  0  0
  3 29  1  0  0  0  0
  3 30  1  0  0  0  0
  3 31  1  0  0  0  0
  4  5  1  0  0  0  0
  4 15  1  0  0  0  0
  5 32  1  0  0  0  0
  5 33  1  0  0  0  0
  5 34  1  0  0  0  0
  6 17  1  0  0  0  0
  6 35  1  0  0  0  0
  7 23  1  0  0  0  0
  7 36  1  0  0  0  0
  8  9  1  0  0  0  0
  8 10  1  0  0  0  0
  8 11  2  0  0  0  0
  9 12  1  0  0  0  0
  9 37  1  6  0  0  0
  9  1  1  0  0  0  0
 10 13  2  0  0  0  0
 10 14  1  0  0  0  0
 11 15  1  0  0  0  0
 11 38  1  0  0  0  0
 12 16  1  0  0  0  0
 13 17  1  0  0  0  0
 13 39  1  0  0  0  0
 14 16  1  0  0  0  0
 14 40  1  0  0  0  0
 14 41  1  0  0  0  0
 15 17  2  0  0  0  0
 16 42  1  0  0  0  0
 16 43  1  0  0  0  0
 18 19  2  0  0  0  0
 18 20  1  0  0  0  0
 19 21  1  0  0  0  0
 19 44  1  0  0  0  0
 20 22  2  0  0  0  0
 20 45  1  0  0  0  0
 21 23  2  0  0  0  0
 21 46  1  0  0  0  0
 22 23  1  0  0  0  0
 22 47  1  0  0  0  0
M  CHG  1  12   1
M  END
>  <Mol_ID>
9852

>  <Formula>
C19H24NO3+

>  <MolWeight>
314.39876

>  <Cat>
E2544

>  <Name>
Lotusine hydroxide

>  <Synonyms>
NA

>  <Target>
intracellular antioxidant defense

>  <Form>
hydroxide

>  <CAS>
6871-67-6

>  <URL>
https://www.selleckchem.com/products/lotusine.html

$$$$
