Loureirin B
 OpenBabel08302521243D

 43 44  0  0  0  0  0  0  0  0999 V2000
   -6.0540    0.7815    4.7260 C   0  0  0  0  0  0  0  0  0  0  0  0
   -7.4169    0.9466    4.5086 C   0  0  0  0  0  0  0  0  0  0  0  0
   -7.8995    1.2566    3.2446 C   0  0  0  0  0  0  0  0  0  0  0  0
   -7.0093    1.3924    2.1752 C   0  0  0  0  0  0  0  0  0  0  0  0
   -5.6366    1.2073    2.3620 C   0  0  0  0  0  0  0  0  0  0  0  0
   -5.1649    0.9043    3.6509 C   0  0  0  0  0  0  0  0  0  0  0  0
   -8.3246    0.8058    5.5151 O   0  0  0  0  0  0  0  0  0  0  0  0
   -4.6491    1.2843    1.2449 C   0  0  0  0  0  0  0  0  0  0  0  0
   -4.9292    2.1789    0.0432 C   0  0  0  0  0  0  0  0  0  0  0  0
   -4.9343    1.4302   -1.2945 C   0  0  0  0  0  0  0  0  0  0  0  0
   -5.9857    0.3397   -1.4174 C   0  0  0  0  0  0  0  0  0  0  0  0
   -7.3571    0.6502   -1.3484 C   0  0  0  0  0  0  0  0  0  0  0  0
   -8.3047   -0.3752   -1.3112 C   0  0  0  0  0  0  0  0  0  0  0  0
   -7.9131   -1.7093   -1.4253 C   0  0  0  0  0  0  0  0  0  0  0  0
   -6.5641   -2.0227   -1.5835 C   0  0  0  0  0  0  0  0  0  0  0  0
   -5.6015   -1.0063   -1.5880 C   0  0  0  0  0  0  0  0  0  0  0  0
   -3.5856    0.6733    1.3479 O   0  0  0  0  0  0  0  0  0  0  0  0
   -4.2705   -1.2329   -1.8264 O   0  0  0  0  0  0  0  0  0  0  0  0
   -3.7483   -2.4960   -1.4389 C   0  0  0  0  0  0  0  0  0  0  0  0
   -8.9316   -2.6196   -1.3334 O   0  0  0  0  0  0  0  0  0  0  0  0
   -8.7250   -3.8581   -2.0026 C   0  0  0  0  0  0  0  0  0  0  0  0
   -7.6781    1.9807   -1.2551 O   0  0  0  0  0  0  0  0  0  0  0  0
   -8.9602    2.3609   -1.7415 C   0  0  0  0  0  0  0  0  0  0  0  0
   -5.6648    0.5506    5.7125 H   0  0  0  0  0  0  0  0  0  0  0  0
   -8.9679    1.3780    3.0846 H   0  0  0  0  0  0  0  0  0  0  0  0
   -7.4245    1.6186    1.2024 H   0  0  0  0  0  0  0  0  0  0  0  0
   -4.0994    0.7653    3.8212 H   0  0  0  0  0  0  0  0  0  0  0  0
   -7.8591    0.5136    6.3158 H   0  0  0  0  0  0  0  0  0  0  0  0
   -5.8402    2.7614    0.1907 H   0  0  0  0  0  0  0  0  0  0  0  0
   -4.1217    2.9214    0.0242 H   0  0  0  0  0  0  0  0  0  0  0  0
   -5.0939    2.1483   -2.1086 H   0  0  0  0  0  0  0  0  0  0  0  0
   -3.9294    1.0279   -1.4618 H   0  0  0  0  0  0  0  0  0  0  0  0
   -9.3613   -0.1669   -1.1779 H   0  0  0  0  0  0  0  0  0  0  0  0
   -6.2580   -3.0540   -1.6934 H   0  0  0  0  0  0  0  0  0  0  0  0
   -3.9642   -2.7044   -0.3867 H   0  0  0  0  0  0  0  0  0  0  0  0
   -4.1168   -3.2970   -2.0872 H   0  0  0  0  0  0  0  0  0  0  0  0
   -2.6615   -2.4545   -1.5608 H   0  0  0  0  0  0  0  0  0  0  0  0
   -8.5541   -3.6947   -3.0718 H   0  0  0  0  0  0  0  0  0  0  0  0
   -7.9097   -4.4344   -1.5553 H   0  0  0  0  0  0  0  0  0  0  0  0
   -9.6381   -4.4513   -1.8932 H   0  0  0  0  0  0  0  0  0  0  0  0
   -9.0981    2.0408   -2.7790 H   0  0  0  0  0  0  0  0  0  0  0  0
   -9.7609    1.9847   -1.0981 H   0  0  0  0  0  0  0  0  0  0  0  0
   -9.0098    3.4541   -1.7159 H   0  0  0  0  0  0  0  0  0  0  0  0
  1  2  2  0  0  0  0
  1 24  1  0  0  0  0
  2  3  1  0  0  0  0
  2  7  1  0  0  0  0
  3  4  2  0  0  0  0
  3 25  1  0  0  0  0
  4  5  1  0  0  0  0
  4 26  1  0  0  0  0
  5  6  2  0  0  0  0
  5  8  1  0  0  0  0
  6  1  1  0  0  0  0
  6 27  1  0  0  0  0
  7 28  1  0  0  0  0
  8  9  1  0  0  0  0
  8 17  2  0  0  0  0
  9 10  1  0  0  0  0
  9 29  1  0  0  0  0
  9 30  1  0  0  0  0
 10 11  1  0  0  0  0
 10 31  1  0  0  0  0
 10 32  1  0  0  0  0
 11 12  2  0  0  0  0
 12 13  1  0  0  0  0
 12 22  1  0  0  0  0
 13 14  2  0  0  0  0
 13 33  1  0  0  0  0
 14 15  1  0  0  0  0
 14 20  1  0  0  0  0
 15 16  2  0  0  0  0
 15 34  1  0  0  0  0
 16 11  1  0  0  0  0
 16 18  1  0  0  0  0
 18 19  1  0  0  0  0
 19 35  1  0  0  0  0
 19 36  1  0  0  0  0
 19 37  1  0  0  0  0
 20 21  1  0  0  0  0
 21 38  1  0  0  0  0
 21 39  1  0  0  0  0
 21 40  1  0  0  0  0
 22 23  1  0  0  0  0
 23 41  1  0  0  0  0
 23 42  1  0  0  0  0
 23 43  1  0  0  0  0
M  END
>  <Mol_ID>
5123

>  <Formula>
C18H20O5

>  <MolWeight>
316.3484

>  <Cat>
S3242

>  <Name>
Loureirin B

>  <Synonyms>
LB, LrB

>  <Target>
Calcium Channel,ERK,JNK,PAI-1,Potassium Channel

>  <Form>
free base

>  <CAS>
119425-90-0

>  <URL>
http://www.selleckchem.com/products/loureirin-b.html

$$$$
