LOX-IN-3 Dihydrochloride
 OpenBabel08302521353D

 32 33  0  0  0  0  0  0  0  0999 V2000
    0.9874    0.0850    0.0752 S   0  0  0  0  0  0  0  0  0  0  0  0
    1.4298    1.4641   -3.0174 F   0  0  0  0  0  0  0  0  0  0  0  0
   -0.1916   -0.7522   -0.1019 O   0  0  0  0  0  0  0  0  0  0  0  0
    1.7723   -0.0813    1.2864 O   0  0  0  0  0  0  0  0  0  0  0  0
    2.7042    2.5874    0.0780 N   0  0  0  0  0  0  0  0  0  0  0  0
    0.6104   -1.1562   -5.7407 N   0  0  0  0  0  0  0  0  0  0  0  0
    0.4335    1.7698    0.0248 C   0  0  0  0  0  0  0  0  0  0  0  0
    2.0334   -0.1948   -1.3322 C   0  0  0  0  0  0  0  0  0  0  0  0
    1.3688    2.8052    0.0582 C   0  0  0  0  0  0  0  0  0  0  0  0
    0.8525    4.1245    0.0741 C   0  0  0  0  0  0  0  0  0  0  0  0
   -0.9516    2.0051   -0.0014 C   0  0  0  0  0  0  0  0  0  0  0  0
   -0.5317    4.3632    0.0411 C   0  0  0  0  0  0  0  0  0  0  0  0
    1.3243    0.1825   -2.5951 C   0  0  0  0  0  0  0  0  0  0  0  0
   -1.4324    3.3057    0.0023 C   0  0  0  0  0  0  0  0  0  0  0  0
    1.7488    5.1991    0.1318 C   0  0  0  0  0  0  0  0  0  0  0  0
    0.6748   -0.6884   -3.3856 C   0  0  0  0  0  0  0  0  0  0  0  0
    3.1142    4.9641    0.1827 C   0  0  0  0  0  0  0  0  0  0  0  0
    3.5388    3.6508    0.1570 C   0  0  0  0  0  0  0  0  0  0  0  0
    0.0320   -0.3363   -4.6864 C   0  0  0  0  0  0  0  0  0  0  0  0
    0.1572   -0.9259   -6.6237 H   0  0  0  0  0  0  0  0  0  0  0  0
    1.5890   -0.8965   -5.8589 H   0  0  0  0  0  0  0  0  0  0  0  0
    2.9621    0.3674   -1.2201 H   0  0  0  0  0  0  0  0  0  0  0  0
    2.2889   -1.2596   -1.3223 H   0  0  0  0  0  0  0  0  0  0  0  0
   -1.6590    1.1783   -0.0119 H   0  0  0  0  0  0  0  0  0  0  0  0
   -0.9175    5.3808    0.0542 H   0  0  0  0  0  0  0  0  0  0  0  0
   -2.5030    3.4946   -0.0127 H   0  0  0  0  0  0  0  0  0  0  0  0
    1.3869    6.2245    0.1504 H   0  0  0  0  0  0  0  0  0  0  0  0
    0.5805   -1.7284   -3.0789 H   0  0  0  0  0  0  0  0  0  0  0  0
    3.8240    5.7793    0.2439 H   0  0  0  0  0  0  0  0  0  0  0  0
    4.5968    3.4080    0.2054 H   0  0  0  0  0  0  0  0  0  0  0  0
   -1.0426   -0.5368   -4.6225 H   0  0  0  0  0  0  0  0  0  0  0  0
    0.1557    0.7228   -4.9350 H   0  0  0  0  0  0  0  0  0  0  0  0
  1  3  2  0  0  0  0
  1  4  2  0  0  0  0
  1  7  1  0  0  0  0
  1  8  1  0  0  0  0
  2 13  1  0  0  0  0
  5  9  2  0  0  0  0
  5 18  1  0  0  0  0
  6 19  1  0  0  0  0
  6 20  1  0  0  0  0
  6 21  1  0  0  0  0
  7  9  1  0  0  0  0
  7 11  2  0  0  0  0
  8 13  1  0  0  0  0
  8 22  1  0  0  0  0
  8 23  1  0  0  0  0
  9 10  1  0  0  0  0
 10 12  1  0  0  0  0
 10 15  2  0  0  0  0
 11 14  1  0  0  0  0
 11 24  1  0  0  0  0
 12 14  2  0  0  0  0
 12 25  1  0  0  0  0
 13 16  2  0  0  0  0
 14 26  1  0  0  0  0
 15 17  1  0  0  0  0
 15 27  1  0  0  0  0
 16 19  1  0  0  0  0
 16 28  1  0  0  0  0
 17 18  2  0  0  0  0
 17 29  1  0  0  0  0
 18 30  1  0  0  0  0
 19 31  1  0  0  0  0
 19 32  1  0  0  0  0
M  END
>  <Mol_ID>
6796

>  <Formula>
C13H15Cl2FN2O2S

>  <MolWeight>
353.2398032

>  <Cat>
E0145

>  <Name>
LOX-IN-3 Dihydrochloride

>  <Synonyms>
N/A

>  <Target>
Others

>  <Form>
Dihydrochloride

>  <CAS>
2409964-23-2

>  <URL>
http://www.selleckchem.com/products/lox-in-3-dihydrochloride.html

$$$$
