LOZOL (indapamide).cdx
 OpenBabel08302520433D

 40 42  0  0  0  0  0  0  0  0999 V2000
   -0.8333   -0.9591    2.9268 C   0  0  0  0  0  0  0  0  0  0  0  0
   -0.4785   -1.4333    1.6516 C   0  0  0  0  0  0  0  0  0  0  0  0
   -1.4282   -1.3990    0.6159 C   0  0  0  0  0  0  0  0  0  0  0  0
   -2.7090   -0.8787    0.8672 C   0  0  0  0  0  0  0  0  0  0  0  0
   -3.0482   -0.4020    2.1400 C   0  0  0  0  0  0  0  0  0  0  0  0
   -2.1089   -0.4426    3.1654 C   0  0  0  0  0  0  0  0  0  0  0  0
   -3.9385   -0.8533   -0.4064 S   0  0  0  0  0  0  0  0  0  0  0  0
   -3.6187    0.6072   -1.1562 N   0  0  0  0  0  0  0  0  0  0  0  0
   -3.6521   -1.8842   -1.3591 O   0  0  0  0  0  0  0  0  0  0  0  0
   -5.2478   -0.7072    0.2019 O   0  0  0  0  0  0  0  0  0  0  0  0
    0.9231   -1.9353    1.5063 C   0  0  0  0  0  0  0  0  0  0  0  0
    1.1345   -2.7318    0.4048 N   0  0  0  0  0  0  0  0  0  0  0  0
    1.7762   -1.6758    2.3456 O   0  0  0  0  0  0  0  0  0  0  0  0
    2.4207   -3.3389    0.1334 N   0  0  0  0  0  0  0  0  0  0  0  0
    2.2589   -3.8468   -1.2122 C   0  0  0  0  0  0  0  0  0  0  0  0
    1.9135   -5.1955   -1.1868 C   0  0  0  0  0  0  0  0  0  0  0  0
    2.5657   -5.8112    0.0027 C   0  0  0  0  0  0  0  0  0  0  0  0
    2.6007   -4.5896    0.9558 C   0  0  3  0  0  0  0  0  0  0  0  0
    1.9136   -3.0061   -2.2647 C   0  0  0  0  0  0  0  0  0  0  0  0
    0.9474   -3.4618   -3.1483 C   0  0  0  0  0  0  0  0  0  0  0  0
    0.4009   -4.7454   -2.9811 C   0  0  0  0  0  0  0  0  0  0  0  0
    0.9202   -5.6442   -2.0331 C   0  0  0  0  0  0  0  0  0  0  0  0
    3.8729   -4.4524    1.7885 C   0  0  0  0  0  0  0  0  0  0  0  0
   -0.1147   -0.9915    3.7371 H   0  0  0  0  0  0  0  0  0  0  0  0
   -1.1902   -1.7418   -0.3888 H   0  0  0  0  0  0  0  0  0  0  0  0
   -4.0370    0.0030    2.3351 H   0  0  0  0  0  0  0  0  0  0  0  0
   -2.3634   -0.0736    4.1561 H   0  0  0  0  0  0  0  0  0  0  0  0
   -3.5851    0.4788   -2.1638 H   0  0  0  0  0  0  0  0  0  0  0  0
   -4.2812    1.3265   -0.8572 H   0  0  0  0  0  0  0  0  0  0  0  0
    0.3667   -3.1067   -0.1430 H   0  0  0  0  0  0  0  0  0  0  0  0
    3.5751   -6.1444   -0.2727 H   0  0  0  0  0  0  0  0  0  0  0  0
    2.0144   -6.6580    0.4188 H   0  0  0  0  0  0  0  0  0  0  0  0
    1.7553   -4.6949    1.6522 H   0  0  0  0  0  0  0  0  0  0  0  0
    2.2510   -1.9742   -2.2679 H   0  0  0  0  0  0  0  0  0  0  0  0
    0.5496   -2.7834   -3.8969 H   0  0  0  0  0  0  0  0  0  0  0  0
   -0.4640   -5.0285   -3.5780 H   0  0  0  0  0  0  0  0  0  0  0  0
    0.4679   -6.6209   -1.9014 H   0  0  0  0  0  0  0  0  0  0  0  0
    3.7134   -4.8578    2.7932 H   0  0  0  0  0  0  0  0  0  0  0  0
    4.7245   -4.9760    1.3492 H   0  0  0  0  0  0  0  0  0  0  0  0
    4.1577   -3.3980    1.9119 H   0  0  0  0  0  0  0  0  0  0  0  0
  1  2  2  0  0  0  0
  1 24  1  0  0  0  0
  2  3  1  0  0  0  0
  2 11  1  0  0  0  0
  3  4  2  0  0  0  0
  3 25  1  0  0  0  0
  4  5  1  0  0  0  0
  4  7  1  0  0  0  0
  5  6  2  0  0  0  0
  5 26  1  0  0  0  0
  6  1  1  0  0  0  0
  6 27  1  0  0  0  0
  7  8  1  0  0  0  0
  7  9  2  0  0  0  0
  7 10  2  0  0  0  0
  8 28  1  0  0  0  0
  8 29  1  0  0  0  0
 11 12  1  0  0  0  0
 11 13  2  0  0  0  0
 12 14  1  0  0  0  0
 12 30  1  0  0  0  0
 14 15  1  0  0  0  0
 15 16  2  0  0  0  0
 15 19  1  0  0  0  0
 16 17  1  0  0  0  0
 17 18  1  0  0  0  0
 17 31  1  0  0  0  0
 17 32  1  0  0  0  0
 18 14  1  0  0  0  0
 18 23  1  0  0  0  0
 18 33  1  0  0  0  0
 19 20  2  0  0  0  0
 19 34  1  0  0  0  0
 20 21  1  0  0  0  0
 20 35  1  0  0  0  0
 21 22  2  0  0  0  0
 21 36  1  0  0  0  0
 22 16  1  0  0  0  0
 22 37  1  0  0  0  0
 23 38  1  0  0  0  0
 23 39  1  0  0  0  0
 23 40  1  0  0  0  0
M  END
>  <Mol_ID>
416

>  <Formula>
C16H16ClN3O3S

>  <MolWeight>
365.83454

>  <Cat>
S1730

>  <Name>
Indapamide

>  <Synonyms>
N/A

>  <Target>
Others

>  <Form>
free base

>  <CAS>
26807-65-8

>  <URL>
http://selleckchem.com/products/Indapamide(Lozol).html

$$$$
