Lucitanib (E3810) hydrochloride
 OpenBabel08302521313D

 59 63  0  0  0  0  0  0  0  0999 V2000
    2.4650   -0.6819   -0.7358 C   0  0  0  0  0  0  0  0  0  0  0  0
    2.4874    0.6390   -0.2681 C   0  0  0  0  0  0  0  0  0  0  0  0
    1.2725    1.2850    0.0138 C   0  0  0  0  0  0  0  0  0  0  0  0
    0.0479    0.6185   -0.0142 C   0  0  0  0  0  0  0  0  0  0  0  0
    0.0444   -0.7520   -0.3158 C   0  0  0  0  0  0  0  0  0  0  0  0
    1.2362   -1.3285   -0.8000 C   0  0  0  0  0  0  0  0  0  0  0  0
   -1.0855    1.2868    0.2513 N   0  0  0  0  0  0  0  0  0  0  0  0
   -2.2479    0.5957    0.2646 C   0  0  0  0  0  0  0  0  0  0  0  0
   -2.3278   -0.7748    0.1184 C   0  0  0  0  0  0  0  0  0  0  0  0
   -1.1502   -1.4745   -0.1200 C   0  0  0  0  0  0  0  0  0  0  0  0
    3.6281   -1.3065   -1.1076 O   0  0  0  0  0  0  0  0  0  0  0  0
    5.8291    0.7999   -0.6980 C   0  0  0  0  0  0  0  0  0  0  0  0
   -1.2881   -2.8564   -0.1591 O   0  0  0  0  0  0  0  0  0  0  0  0
   -0.2857   -3.6919    0.3033 C   0  0  0  0  0  0  0  0  0  0  0  0
   -0.1524   -4.9096   -0.3630 C   0  0  0  0  0  0  0  0  0  0  0  0
    0.9541   -5.7502   -0.1379 C   0  0  0  0  0  0  0  0  0  0  0  0
    1.9797   -5.3626    0.7685 C   0  0  0  0  0  0  0  0  0  0  0  0
    1.7516   -4.1776    1.5187 C   0  0  0  0  0  0  0  0  0  0  0  0
    0.6146   -3.3770    1.3190 C   0  0  0  0  0  0  0  0  0  0  0  0
    1.0625   -6.9693   -0.8280 C   0  0  0  0  0  0  0  0  0  0  0  0
    2.1800   -7.7892   -0.6780 C   0  0  0  0  0  0  0  0  0  0  0  0
    3.2298   -7.3887    0.1400 C   0  0  0  0  0  0  0  0  0  0  0  0
    3.1477   -6.1782    0.8560 C   0  0  0  0  0  0  0  0  0  0  0  0
    4.3717   -5.7198    1.5884 C   0  0  0  0  0  0  0  0  0  0  0  0
    5.1122   -6.6938    2.2270 N   0  0  0  0  0  0  0  0  0  0  0  0
    4.6998   -4.5363    1.5577 O   0  0  0  0  0  0  0  0  0  0  0  0
    6.3385   -6.4005    2.9368 C   0  0  0  0  0  0  0  0  0  0  0  0
    7.2044    0.3094   -0.3293 C   0  0  0  0  0  0  0  0  0  0  0  0
    7.0175    1.7260   -0.7983 C   0  0  0  0  0  0  0  0  0  0  0  0
    5.3137    0.3797   -2.0068 N   0  3  0  0  0  0  0  0  0  0  0  0
    3.5845    1.4618   -0.1928 O   0  0  0  0  0  0  0  0  0  0  0  0
    4.7840    0.9432    0.4080 C   0  0  0  0  0  0  0  0  0  0  0  0
    3.5078   -2.5003   -1.9024 C   0  0  0  0  0  0  0  0  0  0  0  0
    1.2738    2.3380    0.2898 H   0  0  0  0  0  0  0  0  0  0  0  0
    1.1609   -2.3331   -1.2045 H   0  0  0  0  0  0  0  0  0  0  0  0
   -3.1425    1.1944    0.4202 H   0  0  0  0  0  0  0  0  0  0  0  0
   -3.2825   -1.2860    0.1887 H   0  0  0  0  0  0  0  0  0  0  0  0
   -0.8984   -5.1832   -1.1115 H   0  0  0  0  0  0  0  0  0  0  0  0
    2.4769   -3.8504    2.2607 H   0  0  0  0  0  0  0  0  0  0  0  0
    0.5074   -2.4693    1.9075 H   0  0  0  0  0  0  0  0  0  0  0  0
    0.2689   -7.2911   -1.4990 H   0  0  0  0  0  0  0  0  0  0  0  0
    2.2392   -8.7266   -1.2272 H   0  0  0  0  0  0  0  0  0  0  0  0
    4.1231   -8.0062    0.1709 H   0  0  0  0  0  0  0  0  0  0  0  0
    4.8022   -7.6572    2.2228 H   0  0  0  0  0  0  0  0  0  0  0  0
    6.3095   -6.9210    3.8974 H   0  0  0  0  0  0  0  0  0  0  0  0
    7.1801   -6.7796    2.3503 H   0  0  0  0  0  0  0  0  0  0  0  0
    6.4613   -5.3277    3.1024 H   0  0  0  0  0  0  0  0  0  0  0  0
    7.4621    0.1749    0.7177 H   0  0  0  0  0  0  0  0  0  0  0  0
    7.7005   -0.4012   -0.9808 H   0  0  0  0  0  0  0  0  0  0  0  0
    7.4061    1.9818   -1.7807 H   0  0  0  0  0  0  0  0  0  0  0  0
    7.1372    2.5227   -0.0754 H   0  0  0  0  0  0  0  0  0  0  0  0
    4.8917   -0.5475   -1.8807 H   0  0  0  0  0  0  0  0  0  0  0  0
    4.5297    0.9964   -2.2653 H   0  0  0  0  0  0  0  0  0  0  0  0
    6.0093    0.3430   -2.7574 H   0  0  0  0  0  0  0  0  0  0  0  0
    5.1220    1.6736    1.1537 H   0  0  0  0  0  0  0  0  0  0  0  0
    4.6178   -0.0035    0.9365 H   0  0  0  0  0  0  0  0  0  0  0  0
    2.8962   -3.2783   -1.4414 H   0  0  0  0  0  0  0  0  0  0  0  0
    3.1386   -2.2297   -2.8978 H   0  0  0  0  0  0  0  0  0  0  0  0
    4.5120   -2.9178   -2.0182 H   0  0  0  0  0  0  0  0  0  0  0  0
  1  2  2  0  0  0  0
  1 11  1  0  0  0  0
  2  3  1  0  0  0  0
  2 31  1  0  0  0  0
  3  4  2  0  0  0  0
  3 34  1  0  0  0  0
  4  5  1  0  0  0  0
  4  7  1  0  0  0  0
  5  6  2  0  0  0  0
  6  1  1  0  0  0  0
  6 35  1  0  0  0  0
  7  8  2  0  0  0  0
  8  9  1  0  0  0  0
  8 36  1  0  0  0  0
  9 10  2  0  0  0  0
  9 37  1  0  0  0  0
 10  5  1  0  0  0  0
 10 13  1  0  0  0  0
 11 33  1  0  0  0  0
 12 28  1  0  0  0  0
 12 30  1  0  0  0  0
 13 14  1  0  0  0  0
 14 15  2  0  0  0  0
 15 16  1  0  0  0  0
 15 38  1  0  0  0  0
 16 17  2  0  0  0  0
 16 20  1  0  0  0  0
 17 18  1  0  0  0  0
 18 19  2  0  0  0  0
 18 39  1  0  0  0  0
 19 14  1  0  0  0  0
 19 40  1  0  0  0  0
 20 21  2  0  0  0  0
 20 41  1  0  0  0  0
 21 22  1  0  0  0  0
 21 42  1  0  0  0  0
 22 23  2  0  0  0  0
 22 43  1  0  0  0  0
 23 17  1  0  0  0  0
 23 24  1  0  0  0  0
 24 25  1  0  0  0  0
 24 26  2  0  0  0  0
 25 27  1  0  0  0  0
 25 44  1  0  0  0  0
 27 45  1  0  0  0  0
 27 46  1  0  0  0  0
 27 47  1  0  0  0  0
 28 29  1  0  0  0  0
 28 48  1  0  0  0  0
 28 49  1  0  0  0  0
 29 12  1  0  0  0  0
 29 50  1  0  0  0  0
 29 51  1  0  0  0  0
 30 52  1  0  0  0  0
 30 53  1  0  0  0  0
 30 54  1  0  0  0  0
 31 32  1  0  0  0  0
 32 12  1  0  0  0  0
 32 55  1  0  0  0  0
 32 56  1  0  0  0  0
 33 57  1  0  0  0  0
 33 58  1  0  0  0  0
 33 59  1  0  0  0  0
M  CHG  1  30   1
M  END
>  <Mol_ID>
5918

>  <Formula>
C26H26ClN3O4

>  <MolWeight>
479.95534

>  <Cat>
S7647

>  <Name>
Lucitanib (E3810) hydrochloride

>  <Synonyms>
AL3810

>  <Target>
FGFR,VEGFR

>  <Form>
Hydrochloride

>  <CAS>
1058137-23-7

>  <URL>
http://www.selleckchem.com/products/lucitanib.html

$$$$
