Lumateperone
 OpenBabel08302521353D

 57 61  0  0  1  0  0  0  0  0999 V2000
   -0.3721    0.7671    0.3800 C   0  0  0  0  0  0  0  0  0  0  0  0
    4.8907    0.9660   -5.5595 C   0  0  0  0  0  0  0  0  0  0  0  0
    5.6855    2.0973   -6.2036 C   0  0  0  0  0  0  0  0  0  0  0  0
    7.1053    2.2750   -5.6804 C   0  0  0  0  0  0  0  0  0  0  0  0
    7.9650    1.0386   -5.8797 C   0  0  0  0  0  0  0  0  0  0  0  0
    8.2217    0.6294   -7.0175 O   0  0  0  0  0  0  0  0  0  0  0  0
   10.3459   -1.6510   -1.5389 F   0  0  0  0  0  0  0  0  0  0  0  0
    0.7760    1.7847   -2.4085 C   0  0  0  0  0  0  0  0  0  0  0  0
    1.7035    2.8227   -2.3422 C   0  0  0  0  0  0  0  0  0  0  0  0
    1.3846    0.5726   -2.8326 N   0  0  0  0  0  0  0  0  0  0  0  0
   -0.4224    1.8567   -1.7134 C   0  0  0  0  0  0  0  0  0  0  0  0
    3.0763    2.1581   -2.3804 C   0  0  1  0  0  0  0  0  0  0  0  0
    1.2841    4.0925   -1.9939 C   0  0  0  0  0  0  0  0  0  0  0  0
    2.5954    0.7051   -2.0254 C   0  0  2  0  0  0  0  0  0  0  0  0
    0.4005   -0.4843   -2.9017 C   0  0  0  0  0  0  0  0  0  0  0  0
   -0.8968    0.6920   -1.0177 N   0  0  0  0  0  0  0  0  0  0  0  0
   -0.8910    3.1344   -1.4054 C   0  0  0  0  0  0  0  0  0  0  0  0
    3.7816    2.1903   -3.7541 C   0  0  0  0  0  0  0  0  0  0  0  0
   -0.0596    4.2546   -1.6063 C   0  0  0  0  0  0  0  0  0  0  0  0
    3.6275   -0.3484   -2.2959 C   0  0  0  0  0  0  0  0  0  0  0  0
   -0.4855   -0.6018   -1.6602 C   0  0  0  0  0  0  0  0  0  0  0  0
    4.6742    1.0411   -4.0912 N   0  0  0  0  0  0  0  0  0  0  0  0
    4.0804   -0.2668   -3.7291 C   0  0  0  0  0  0  0  0  0  0  0  0
    8.5520    0.3211   -4.6986 C   0  0  0  0  0  0  0  0  0  0  0  0
    8.1398    0.5671   -3.3839 C   0  0  0  0  0  0  0  0  0  0  0  0
    9.5579   -0.6316   -4.9343 C   0  0  0  0  0  0  0  0  0  0  0  0
    8.7502   -0.1012   -2.3156 C   0  0  0  0  0  0  0  0  0  0  0  0
   10.1621   -1.3038   -3.8663 C   0  0  0  0  0  0  0  0  0  0  0  0
    9.7587   -1.0212   -2.5662 C   0  0  0  0  0  0  0  0  0  0  0  0
   -1.0941    0.3265    1.0584 H   0  0  0  0  0  0  0  0  0  0  0  0
   -0.1458    1.7799    0.7180 H   0  0  0  0  0  0  0  0  0  0  0  0
    0.5730    0.1994    0.4804 H   0  0  0  0  0  0  0  0  0  0  0  0
    5.4075    0.0259   -5.7928 H   0  0  0  0  0  0  0  0  0  0  0  0
    3.9168    0.9021   -6.0686 H   0  0  0  0  0  0  0  0  0  0  0  0
    5.7300    1.8887   -7.2802 H   0  0  0  0  0  0  0  0  0  0  0  0
    5.1436    3.0441   -6.0987 H   0  0  0  0  0  0  0  0  0  0  0  0
    7.5893    3.0798   -6.2454 H   0  0  0  0  0  0  0  0  0  0  0  0
    7.0983    2.6183   -4.6465 H   0  0  0  0  0  0  0  0  0  0  0  0
    3.7234    2.5312   -1.5779 H   0  0  0  0  0  0  0  0  0  0  0  0
    1.9675    4.9329   -1.9527 H   0  0  0  0  0  0  0  0  0  0  0  0
    2.3477    0.6474   -0.9524 H   0  0  0  0  0  0  0  0  0  0  0  0
    0.8754   -1.4392   -3.1487 H   0  0  0  0  0  0  0  0  0  0  0  0
   -0.2543   -0.2611   -3.7593 H   0  0  0  0  0  0  0  0  0  0  0  0
   -1.8563    3.2499   -0.9197 H   0  0  0  0  0  0  0  0  0  0  0  0
    4.4046    3.0959   -3.7633 H   0  0  0  0  0  0  0  0  0  0  0  0
    3.0328    2.3347   -4.5423 H   0  0  0  0  0  0  0  0  0  0  0  0
   -0.4328    5.2393   -1.3342 H   0  0  0  0  0  0  0  0  0  0  0  0
    3.2108   -1.3422   -2.0925 H   0  0  0  0  0  0  0  0  0  0  0  0
    4.4777   -0.2143   -1.6166 H   0  0  0  0  0  0  0  0  0  0  0  0
    0.0516   -1.2386   -0.9446 H   0  0  0  0  0  0  0  0  0  0  0  0
   -1.3952   -1.1554   -1.9194 H   0  0  0  0  0  0  0  0  0  0  0  0
    3.2362   -0.5091   -4.3878 H   0  0  0  0  0  0  0  0  0  0  0  0
    4.8314   -1.0529   -3.8784 H   0  0  0  0  0  0  0  0  0  0  0  0
    7.3351    1.2575   -3.1495 H   0  0  0  0  0  0  0  0  0  0  0  0
    9.8791   -0.8536   -5.9518 H   0  0  0  0  0  0  0  0  0  0  0  0
    8.4357    0.0895   -1.2928 H   0  0  0  0  0  0  0  0  0  0  0  0
   10.9421   -2.0357   -4.0400 H   0  0  0  0  0  0  0  0  0  0  0  0
  1 16  1  0  0  0  0
  1 30  1  0  0  0  0
  1 31  1  0  0  0  0
  1 32  1  0  0  0  0
  2  3  1  0  0  0  0
  2 22  1  0  0  0  0
  2 33  1  0  0  0  0
  2 34  1  0  0  0  0
  3  4  1  0  0  0  0
  3 35  1  0  0  0  0
  3 36  1  0  0  0  0
  4  5  1  0  0  0  0
  4 37  1  0  0  0  0
  4 38  1  0  0  0  0
  5  6  2  0  0  0  0
  5 24  1  0  0  0  0
  7 29  1  0  0  0  0
  8  9  1  0  0  0  0
  8 10  1  0  0  0  0
  8 11  2  0  0  0  0
  9 12  1  0  0  0  0
  9 13  2  0  0  0  0
 10 14  1  0  0  0  0
 10 15  1  0  0  0  0
 11 16  1  0  0  0  0
 11 17  1  0  0  0  0
 12 14  1  0  0  0  0
 12 18  1  0  0  0  0
 12 39  1  1  0  0  0
 13 19  1  0  0  0  0
 13 40  1  0  0  0  0
 14 20  1  0  0  0  0
 14 41  1  1  0  0  0
 15 21  1  0  0  0  0
 15 42  1  0  0  0  0
 15 43  1  0  0  0  0
 16 21  1  0  0  0  0
 17 19  2  0  0  0  0
 17 44  1  0  0  0  0
 18 22  1  0  0  0  0
 18 45  1  0  0  0  0
 18 46  1  0  0  0  0
 19 47  1  0  0  0  0
 20 23  1  0  0  0  0
 20 48  1  0  0  0  0
 20 49  1  0  0  0  0
 21 50  1  0  0  0  0
 21 51  1  0  0  0  0
 22 23  1  0  0  0  0
 23 52  1  0  0  0  0
 23 53  1  0  0  0  0
 24 25  2  0  0  0  0
 24 26  1  0  0  0  0
 25 27  1  0  0  0  0
 25 54  1  0  0  0  0
 26 28  2  0  0  0  0
 26 55  1  0  0  0  0
 27 29  2  0  0  0  0
 27 56  1  0  0  0  0
 28 29  1  0  0  0  0
 28 57  1  0  0  0  0
M  END
>  <Mol_ID>
7021

>  <Formula>
C24H28FN3O

>  <MolWeight>
393.4970232

>  <Cat>
E4477

>  <Name>
Lumateperone

>  <Synonyms>
ITI-007

>  <Target>
5-HT Receptor

>  <Form>
free base

>  <CAS>
313368-91-1

>  <URL>
https://www.selleckchem.com/products/lumateperone.html

$$$$
