Luminol
 OpenBabel08302521243D

 20 21  0  0  0  0  0  0  0  0999 V2000
    1.2522    1.4191    0.0553 C   0  0  0  0  0  0  0  0  0  0  0  0
    2.4186    0.7017    0.0236 N   0  0  0  0  0  0  0  0  0  0  0  0
    2.4469   -0.6796    0.0269 N   0  0  0  0  0  0  0  0  0  0  0  0
    1.3129   -1.4546    0.0973 C   0  0  0  0  0  0  0  0  0  0  0  0
    0.0083   -0.7464    0.1194 C   0  0  0  0  0  0  0  0  0  0  0  0
   -1.2068   -1.4663    0.1266 C   0  0  0  0  0  0  0  0  0  0  0  0
   -2.4113   -0.7534    0.0298 C   0  0  0  0  0  0  0  0  0  0  0  0
   -2.4209    0.6382   -0.0773 C   0  0  0  0  0  0  0  0  0  0  0  0
   -1.2220    1.3433   -0.0402 C   0  0  0  0  0  0  0  0  0  0  0  0
   -0.0076    0.6510    0.0459 C   0  0  0  0  0  0  0  0  0  0  0  0
    1.2575    2.6488    0.0829 O   0  0  0  0  0  0  0  0  0  0  0  0
    1.3968   -2.6801    0.0882 O   0  0  0  0  0  0  0  0  0  0  0  0
   -1.2733   -2.8278    0.4722 N   0  0  0  0  0  0  0  0  0  0  0  0
    3.2927    1.2176    0.0230 H   0  0  0  0  0  0  0  0  0  0  0  0
    3.3393   -1.1587   -0.0491 H   0  0  0  0  0  0  0  0  0  0  0  0
   -3.3604   -1.2851    0.0470 H   0  0  0  0  0  0  0  0  0  0  0  0
   -3.3647    1.1709   -0.1639 H   0  0  0  0  0  0  0  0  0  0  0  0
   -1.2343    2.4310   -0.0835 H   0  0  0  0  0  0  0  0  0  0  0  0
   -0.3880   -3.3220    0.3125 H   0  0  0  0  0  0  0  0  0  0  0  0
   -2.0791   -3.3340    0.1245 H   0  0  0  0  0  0  0  0  0  0  0  0
  1  2  1  0  0  0  0
  1 10  1  0  0  0  0
  1 11  2  0  0  0  0
  2  3  1  0  0  0  0
  2 14  1  0  0  0  0
  3  4  1  0  0  0  0
  3 15  1  0  0  0  0
  4  5  1  0  0  0  0
  4 12  2  0  0  0  0
  5  6  1  0  0  0  0
  5 10  2  0  0  0  0
  6  7  2  0  0  0  0
  6 13  1  0  0  0  0
  7  8  1  0  0  0  0
  7 16  1  0  0  0  0
  8  9  2  0  0  0  0
  8 17  1  0  0  0  0
  9 10  1  0  0  0  0
  9 18  1  0  0  0  0
 13 19  1  0  0  0  0
 13 20  1  0  0  0  0
M  END
>  <Mol_ID>
4948

>  <Formula>
C8H7N3O2

>  <MolWeight>
177.16008

>  <Cat>
S6819

>  <Name>
Luminol

>  <Synonyms>
Diogenes reagent, 3-Aminophthalhydrazide

>  <Target>
Dyes

>  <Form>
Free Base

>  <CAS>
521-31-3

>  <URL>
http://www.selleckchem.com/products/luminol.html

$$$$
