LX2343
 OpenBabel08302520403D

 51 54  0  0  0  0  0  0  0  0999 V2000
   -0.3390   -0.6415    0.8336 C   0  0  0  0  0  0  0  0  0  0  0  0
    0.1519    0.6983    0.3119 C   0  0  0  0  0  0  0  0  0  0  0  0
   -0.5207   -0.8067    2.0378 O   0  0  0  0  0  0  0  0  0  0  0  0
   -0.4405   -1.6135   -0.1513 N   0  0  0  0  0  0  0  0  0  0  0  0
   -1.5849   -6.9799    0.5777 O   0  0  0  0  0  0  0  0  0  0  0  0
   -1.9877   -6.8504    1.9579 C   0  0  0  0  0  0  0  0  0  0  0  0
   -2.0367   -5.4832    2.4123 O   0  0  0  0  0  0  0  0  0  0  0  0
   -1.5491   -4.8330    1.3208 C   0  0  0  0  0  0  0  0  0  0  0  0
   -1.2993   -5.6863    0.2738 C   0  0  0  0  0  0  0  0  0  0  0  0
   -1.3067   -3.4761    1.2330 C   0  0  0  0  0  0  0  0  0  0  0  0
   -0.7812   -2.9722    0.0379 C   0  0  0  0  0  0  0  0  0  0  0  0
   -0.5549   -3.8529   -1.0445 C   0  0  0  0  0  0  0  0  0  0  0  0
   -0.8098   -5.2260   -0.9276 C   0  0  0  0  0  0  0  0  0  0  0  0
   -0.8337    1.4175   -0.5512 N   0  0  0  0  0  0  0  0  0  0  0  0
   -2.0874    1.7966    0.0841 C   0  0  0  0  0  0  0  0  0  0  0  0
   -3.3632    1.4683   -0.4231 C   0  0  0  0  0  0  0  0  0  0  0  0
   -4.5026    1.8259    0.3277 C   0  0  0  0  0  0  0  0  0  0  0  0
   -4.4077    2.4904    1.5471 C   0  0  0  0  0  0  0  0  0  0  0  0
   -3.1595    2.8409    2.0300 C   0  0  0  0  0  0  0  0  0  0  0  0
   -2.0173    2.5114    1.2976 C   0  0  0  0  0  0  0  0  0  0  0  0
   -3.7535    0.7681   -1.5270 O   0  0  0  0  0  0  0  0  0  0  0  0
   -2.8681    0.4546   -2.5779 C   0  0  0  0  0  0  0  0  0  0  0  0
   -0.1068    2.5879   -1.5776 S   0  0  0  0  0  0  0  0  0  0  0  0
    1.0231    1.9356   -2.2222 O   0  0  0  0  0  0  0  0  0  0  0  0
   -1.1315    3.2056   -2.3939 O   0  0  0  0  0  0  0  0  0  0  0  0
    0.5624    3.8810   -0.5340 C   0  0  0  0  0  0  0  0  0  0  0  0
    1.9070    3.8399   -0.1402 C   0  0  0  0  0  0  0  0  0  0  0  0
    2.4851    4.9543    0.4778 C   0  0  0  0  0  0  0  0  0  0  0  0
    1.7311    6.1089    0.6912 C   0  0  0  0  0  0  0  0  0  0  0  0
    0.3920    6.1490    0.3022 C   0  0  0  0  0  0  0  0  0  0  0  0
   -0.1920    5.0415   -0.3165 C   0  0  0  0  0  0  0  0  0  0  0  0
    0.4406    1.3113    1.1742 H   0  0  0  0  0  0  0  0  0  0  0  0
    1.0768    0.4920   -0.2359 H   0  0  0  0  0  0  0  0  0  0  0  0
   -0.1594   -1.3422   -1.0869 H   0  0  0  0  0  0  0  0  0  0  0  0
   -2.9796   -7.3003    2.0803 H   0  0  0  0  0  0  0  0  0  0  0  0
   -1.2742   -7.3997    2.5842 H   0  0  0  0  0  0  0  0  0  0  0  0
   -1.5367   -2.8491    2.0857 H   0  0  0  0  0  0  0  0  0  0  0  0
   -0.1502   -3.4834   -1.9835 H   0  0  0  0  0  0  0  0  0  0  0  0
   -0.6167   -5.9084   -1.7479 H   0  0  0  0  0  0  0  0  0  0  0  0
   -5.4898    1.5567   -0.0463 H   0  0  0  0  0  0  0  0  0  0  0  0
   -5.3057    2.7203    2.1140 H   0  0  0  0  0  0  0  0  0  0  0  0
   -3.0669    3.3531    2.9841 H   0  0  0  0  0  0  0  0  0  0  0  0
   -1.0610    2.8013    1.7245 H   0  0  0  0  0  0  0  0  0  0  0  0
   -2.5086    1.3498   -3.0835 H   0  0  0  0  0  0  0  0  0  0  0  0
   -2.0595   -0.1978   -2.2478 H   0  0  0  0  0  0  0  0  0  0  0  0
   -3.4503   -0.1034   -3.3214 H   0  0  0  0  0  0  0  0  0  0  0  0
    2.5284    2.9729   -0.3535 H   0  0  0  0  0  0  0  0  0  0  0  0
    3.5368    4.9407    0.7570 H   0  0  0  0  0  0  0  0  0  0  0  0
    2.1942    6.9871    1.1366 H   0  0  0  0  0  0  0  0  0  0  0  0
   -0.1859    7.0601    0.4466 H   0  0  0  0  0  0  0  0  0  0  0  0
   -1.2207    5.1075   -0.6656 H   0  0  0  0  0  0  0  0  0  0  0  0
  1  2  1  0  0  0  0
  1  3  2  0  0  0  0
  1  4  1  0  0  0  0
  2 14  1  0  0  0  0
  2 32  1  0  0  0  0
  2 33  1  0  0  0  0
  4 11  1  0  0  0  0
  4 34  1  0  0  0  0
  5  6  1  0  0  0  0
  5  9  1  0  0  0  0
  6  7  1  0  0  0  0
  6 35  1  0  0  0  0
  6 36  1  0  0  0  0
  7  8  1  0  0  0  0
  8  9  2  0  0  0  0
  8 10  1  0  0  0  0
  9 13  1  0  0  0  0
 10 11  2  0  0  0  0
 10 37  1  0  0  0  0
 11 12  1  0  0  0  0
 12 13  2  0  0  0  0
 12 38  1  0  0  0  0
 13 39  1  0  0  0  0
 14 15  1  0  0  0  0
 14 23  1  0  0  0  0
 15 16  2  0  0  0  0
 15 20  1  0  0  0  0
 16 17  1  0  0  0  0
 16 21  1  0  0  0  0
 17 18  2  0  0  0  0
 17 40  1  0  0  0  0
 18 19  1  0  0  0  0
 18 41  1  0  0  0  0
 19 20  2  0  0  0  0
 19 42  1  0  0  0  0
 20 43  1  0  0  0  0
 21 22  1  0  0  0  0
 22 44  1  0  0  0  0
 22 45  1  0  0  0  0
 22 46  1  0  0  0  0
 23 24  2  0  0  0  0
 23 25  2  0  0  0  0
 23 26  1  0  0  0  0
 26 27  2  0  0  0  0
 26 31  1  0  0  0  0
 27 28  1  0  0  0  0
 27 47  1  0  0  0  0
 28 29  2  0  0  0  0
 28 48  1  0  0  0  0
 29 30  1  0  0  0  0
 29 49  1  0  0  0  0
 30 31  2  0  0  0  0
 30 50  1  0  0  0  0
 31 51  1  0  0  0  0
M  END
>  <Mol_ID>
3805

>  <Formula>
C22H19ClN2O6S

>  <MolWeight>
474.91406

>  <Cat>
S6503

>  <Name>
LX2343

>  <Synonyms>
N/A

>  <Target>
BACE

>  <Form>
free base

>  <CAS>
333745-53-2

>  <URL>
http://www.selleck.cn/products/lx2343.html

$$$$
