LY-3381916
 OpenBabel08302521303D

 54 57  0  0  0  0  0  0  0  0999 V2000
   -8.3995   -1.3891    5.5869 C   0  0  0  0  0  0  0  0  0  0  0  0
   -9.7118   -1.4647    5.1403 C   0  0  0  0  0  0  0  0  0  0  0  0
  -10.0013   -1.4839    3.7807 C   0  0  0  0  0  0  0  0  0  0  0  0
   -8.9617   -1.4226    2.8454 C   0  0  0  0  0  0  0  0  0  0  0  0
   -7.6282   -1.3443    3.2736 C   0  0  0  0  0  0  0  0  0  0  0  0
   -7.3595   -1.3293    4.6550 C   0  0  0  0  0  0  0  0  0  0  0  0
  -10.7117   -1.5173    6.0274 F   0  0  0  0  0  0  0  0  0  0  0  0
   -6.4599   -1.2555    2.3401 C   0  0  0  0  0  0  0  0  0  0  0  0
   -6.7079   -1.3291    0.9875 N   0  0  0  0  0  0  0  0  0  0  0  0
   -5.3292   -1.1205    2.7928 O   0  0  0  0  0  0  0  0  0  0  0  0
   -5.6406   -1.2142    0.0044 C   0  0  1  0  0  0  0  0  0  0  0  0
   -6.0624   -1.9245   -1.2725 C   0  0  0  0  0  0  0  0  0  0  0  0
   -5.7952   -3.3051   -1.4021 C   0  0  0  0  0  0  0  0  0  0  0  0
   -6.1583   -4.0162   -2.5525 C   0  0  0  0  0  0  0  0  0  0  0  0
   -6.8106   -3.3431   -3.5695 C   0  0  0  0  0  0  0  0  0  0  0  0
   -7.1026   -1.9858   -3.4426 C   0  0  0  0  0  0  0  0  0  0  0  0
   -6.7422   -1.2679   -2.3109 C   0  0  0  0  0  0  0  0  0  0  0  0
   -7.2816   -3.8263   -4.8128 N   0  0  0  0  0  0  0  0  0  0  0  0
   -8.0911   -2.7541   -5.4211 C   0  0  0  0  0  0  0  0  0  0  0  0
   -7.7448   -1.4565   -4.6833 C   0  0  0  0  0  0  0  0  0  0  0  0
   -7.1347   -5.1242   -5.2632 C   0  0  0  0  0  0  0  0  0  0  0  0
   -7.7281   -5.4613   -6.6360 C   0  0  0  0  0  0  0  0  0  0  0  0
   -8.0017   -6.9733   -6.7267 C   0  0  0  0  0  0  0  0  0  0  0  0
   -8.3023   -7.4259   -8.1453 C   0  0  0  0  0  0  0  0  0  0  0  0
   -7.2738   -7.0082   -9.0379 O   0  0  0  0  0  0  0  0  0  0  0  0
   -7.1658   -5.5907   -9.0982 C   0  0  0  0  0  0  0  0  0  0  0  0
   -6.7613   -5.0216   -7.7468 C   0  0  0  0  0  0  0  0  0  0  0  0
   -6.5230   -5.9933   -4.6358 O   0  0  0  0  0  0  0  0  0  0  0  0
   -5.2496    0.2532   -0.2078 C   0  0  0  0  0  0  0  0  0  0  0  0
   -8.1918   -1.3750    6.6515 H   0  0  0  0  0  0  0  0  0  0  0  0
  -11.0358   -1.5430    3.4569 H   0  0  0  0  0  0  0  0  0  0  0  0
   -9.2321   -1.4311    1.7965 H   0  0  0  0  0  0  0  0  0  0  0  0
   -6.3325   -1.2676    5.0132 H   0  0  0  0  0  0  0  0  0  0  0  0
   -7.6386   -1.4653    0.6255 H   0  0  0  0  0  0  0  0  0  0  0  0
   -4.7529   -1.7235    0.4048 H   0  0  0  0  0  0  0  0  0  0  0  0
   -5.2891   -3.8390   -0.5983 H   0  0  0  0  0  0  0  0  0  0  0  0
   -5.9254   -5.0737   -2.6145 H   0  0  0  0  0  0  0  0  0  0  0  0
   -6.9794   -0.2097   -2.2559 H   0  0  0  0  0  0  0  0  0  0  0  0
   -7.9171   -2.6687   -6.4952 H   0  0  0  0  0  0  0  0  0  0  0  0
   -9.1450   -3.0187   -5.2663 H   0  0  0  0  0  0  0  0  0  0  0  0
   -8.6314   -0.8499   -4.4815 H   0  0  0  0  0  0  0  0  0  0  0  0
   -7.0138   -0.8698   -5.2517 H   0  0  0  0  0  0  0  0  0  0  0  0
   -8.6868   -4.9442   -6.7603 H   0  0  0  0  0  0  0  0  0  0  0  0
   -7.1249   -7.5329   -6.3773 H   0  0  0  0  0  0  0  0  0  0  0  0
   -8.8324   -7.2409   -6.0631 H   0  0  0  0  0  0  0  0  0  0  0  0
   -8.3484   -8.5195   -8.1793 H   0  0  0  0  0  0  0  0  0  0  0  0
   -9.2674   -7.0437   -8.4937 H   0  0  0  0  0  0  0  0  0  0  0  0
   -8.1164   -5.1669   -9.4431 H   0  0  0  0  0  0  0  0  0  0  0  0
   -6.4062   -5.3454   -9.8472 H   0  0  0  0  0  0  0  0  0  0  0  0
   -6.7053   -3.9304   -7.8138 H   0  0  0  0  0  0  0  0  0  0  0  0
   -5.7508   -5.3711   -7.5004 H   0  0  0  0  0  0  0  0  0  0  0  0
   -4.8675    0.6944    0.7172 H   0  0  0  0  0  0  0  0  0  0  0  0
   -4.4701    0.3425   -0.9724 H   0  0  0  0  0  0  0  0  0  0  0  0
   -6.1044    0.8637   -0.5175 H   0  0  0  0  0  0  0  0  0  0  0  0
  1  2  2  0  0  0  0
  1 30  1  0  0  0  0
  2  3  1  0  0  0  0
  2  7  1  0  0  0  0
  3  4  2  0  0  0  0
  3 31  1  0  0  0  0
  4  5  1  0  0  0  0
  4 32  1  0  0  0  0
  5  6  2  0  0  0  0
  5  8  1  0  0  0  0
  6  1  1  0  0  0  0
  6 33  1  0  0  0  0
  8  9  1  0  0  0  0
  8 10  2  0  0  0  0
  9 11  1  0  0  0  0
  9 34  1  0  0  0  0
 11 12  1  0  0  0  0
 11 29  1  0  0  0  0
 11 35  1  1  0  0  0
 12 13  2  0  0  0  0
 13 14  1  0  0  0  0
 13 36  1  0  0  0  0
 14 15  2  0  0  0  0
 14 37  1  0  0  0  0
 15 16  1  0  0  0  0
 15 18  1  0  0  0  0
 16 17  2  0  0  0  0
 17 12  1  0  0  0  0
 17 38  1  0  0  0  0
 18 19  1  0  0  0  0
 18 21  1  0  0  0  0
 19 20  1  0  0  0  0
 19 39  1  0  0  0  0
 19 40  1  0  0  0  0
 20 16  1  0  0  0  0
 20 41  1  0  0  0  0
 20 42  1  0  0  0  0
 21 22  1  0  0  0  0
 21 28  2  0  0  0  0
 22 23  1  0  0  0  0
 22 43  1  0  0  0  0
 23 24  1  0  0  0  0
 23 44  1  0  0  0  0
 23 45  1  0  0  0  0
 24 25  1  0  0  0  0
 24 46  1  0  0  0  0
 24 47  1  0  0  0  0
 25 26  1  0  0  0  0
 26 27  1  0  0  0  0
 26 48  1  0  0  0  0
 26 49  1  0  0  0  0
 27 22  1  0  0  0  0
 27 50  1  0  0  0  0
 27 51  1  0  0  0  0
 29 52  1  0  0  0  0
 29 53  1  0  0  0  0
 29 54  1  0  0  0  0
M  END
>  <Mol_ID>
5545

>  <Formula>
C23H25FN2O3

>  <MolWeight>
396.4546032

>  <Cat>
S8919

>  <Name>
LY-3381916

>  <Synonyms>
IDO1-IN-5

>  <Target>
IDO/TDO

>  <Form>
Free Base

>  <CAS>
2166616-75-5

>  <URL>
https://www.selleckchem.com/products/ly-3381916.html

$$$$
