LY2584702.cdx
 OpenBabel08302521393D

 51 55  0  0  0  0  0  0  0  0999 V2000
   -3.4531   -3.5222    4.1486 C   0  0  0  0  0  0  0  0  0  0  0  0
   -2.7627   -2.3181    4.0607 C   0  0  0  0  0  0  0  0  0  0  0  0
   -3.0660   -1.4193    3.0398 C   0  0  0  0  0  0  0  0  0  0  0  0
   -4.0649   -1.7189    2.1041 C   0  0  0  0  0  0  0  0  0  0  0  0
   -4.7522   -2.9367    2.2083 C   0  0  0  0  0  0  0  0  0  0  0  0
   -4.4495   -3.8523    3.2360 C   0  0  0  0  0  0  0  0  0  0  0  0
   -4.3893   -0.7861    1.0409 C   0  0  0  0  0  0  0  0  0  0  0  0
   -3.5238    0.1195    0.4795 C   0  0  0  0  0  0  0  0  0  0  0  0
   -4.2570    0.7977   -0.4565 N   0  0  0  0  0  0  0  0  0  0  0  0
   -5.5376    0.2849   -0.4462 C   0  0  0  0  0  0  0  0  0  0  0  0
   -5.6235   -0.6866    0.4484 N   0  0  0  0  0  0  0  0  0  0  0  0
   -3.6970    1.8500   -1.2677 C   0  0  0  0  0  0  0  0  0  0  0  0
   -6.6623    0.7521   -1.3371 C   0  0  0  0  0  0  0  0  0  0  0  0
   -7.5783    1.7688   -0.6386 C   0  0  0  0  0  0  0  0  0  0  0  0
   -8.5512    1.1273    0.3544 C   0  0  0  0  0  0  0  0  0  0  0  0
   -9.2535    0.0230   -0.2952 N   0  0  0  0  0  0  0  0  0  0  0  0
   -8.4344   -1.0328   -0.8678 C   0  0  0  0  0  0  0  0  0  0  0  0
   -7.4804   -0.4210   -1.8918 C   0  0  0  0  0  0  0  0  0  0  0  0
  -10.5863   -0.1817    0.0097 C   0  0  0  0  0  0  0  0  0  0  0  0
  -11.4040    0.9100    0.0222 N   0  0  0  0  0  0  0  0  0  0  0  0
  -12.7359    0.7475    0.1539 C   0  0  0  0  0  0  0  0  0  0  0  0
  -13.4200   -0.3971    0.3069 N   0  0  0  0  0  0  0  0  0  0  0  0
  -12.5846   -1.4459    0.3449 C   0  0  0  0  0  0  0  0  0  0  0  0
  -11.2078   -1.4321    0.2227 C   0  0  0  0  0  0  0  0  0  0  0  0
  -12.9449   -2.7527    0.4974 N   0  0  0  0  0  0  0  0  0  0  0  0
  -11.8999   -3.6038    0.5275 N   0  0  0  0  0  0  0  0  0  0  0  0
  -10.8478   -2.7897    0.3732 C   0  0  0  0  0  0  0  0  0  0  0  0
   -5.1917   -5.1511    3.3339 C   0  0  0  0  0  0  0  0  0  0  0  0
   -4.8323   -5.9468    4.3741 F   0  0  0  0  0  0  0  0  0  0  0  0
   -6.5378   -4.9678    3.4608 F   0  0  0  0  0  0  0  0  0  0  0  0
   -5.0327   -5.9173    2.2157 F   0  0  0  0  0  0  0  0  0  0  0  0
   -3.1352   -4.3584    5.1443 F   0  0  0  0  0  0  0  0  0  0  0  0
   -1.9947   -2.0825    4.7928 H   0  0  0  0  0  0  0  0  0  0  0  0
   -2.5271   -0.4764    2.9956 H   0  0  0  0  0  0  0  0  0  0  0  0
   -5.5282   -3.1789    1.4802 H   0  0  0  0  0  0  0  0  0  0  0  0
   -2.4779    0.3340    0.6548 H   0  0  0  0  0  0  0  0  0  0  0  0
   -3.2331    2.5830   -0.6012 H   0  0  0  0  0  0  0  0  0  0  0  0
   -2.9376    1.4070   -1.9188 H   0  0  0  0  0  0  0  0  0  0  0  0
   -4.4632    2.3418   -1.8646 H   0  0  0  0  0  0  0  0  0  0  0  0
   -6.2222    1.2490   -2.2092 H   0  0  0  0  0  0  0  0  0  0  0  0
   -6.9918    2.5479   -0.1368 H   0  0  0  0  0  0  0  0  0  0  0  0
   -8.1734    2.2756   -1.4112 H   0  0  0  0  0  0  0  0  0  0  0  0
   -8.0129    0.7631    1.2381 H   0  0  0  0  0  0  0  0  0  0  0  0
   -9.2358    1.9085    0.7083 H   0  0  0  0  0  0  0  0  0  0  0  0
   -9.0478   -1.7562   -1.4168 H   0  0  0  0  0  0  0  0  0  0  0  0
   -7.9038   -1.5827   -0.0847 H   0  0  0  0  0  0  0  0  0  0  0  0
   -8.0851   -0.0427   -2.7293 H   0  0  0  0  0  0  0  0  0  0  0  0
   -6.8271   -1.1987   -2.3035 H   0  0  0  0  0  0  0  0  0  0  0  0
  -13.3282    1.6565    0.1173 H   0  0  0  0  0  0  0  0  0  0  0  0
  -13.8840   -3.1191    0.5878 H   0  0  0  0  0  0  0  0  0  0  0  0
   -9.8573   -3.2249    0.3836 H   0  0  0  0  0  0  0  0  0  0  0  0
  1  2  2  0  0  0  0
  1 32  1  0  0  0  0
  2  3  1  0  0  0  0
  2 33  1  0  0  0  0
  3  4  2  0  0  0  0
  3 34  1  0  0  0  0
  4  5  1  0  0  0  0
  4  7  1  0  0  0  0
  5  6  2  0  0  0  0
  5 35  1  0  0  0  0
  6  1  1  0  0  0  0
  6 28  1  0  0  0  0
  7  8  2  0  0  0  0
  8  9  1  0  0  0  0
  8 36  1  0  0  0  0
  9 10  1  0  0  0  0
  9 12  1  0  0  0  0
 10 11  2  0  0  0  0
 10 13  1  0  0  0  0
 11  7  1  0  0  0  0
 12 37  1  0  0  0  0
 12 38  1  0  0  0  0
 12 39  1  0  0  0  0
 13 14  1  0  0  0  0
 13 40  1  0  0  0  0
 14 15  1  0  0  0  0
 14 41  1  0  0  0  0
 14 42  1  0  0  0  0
 15 16  1  0  0  0  0
 15 43  1  0  0  0  0
 15 44  1  0  0  0  0
 16 17  1  0  0  0  0
 16 19  1  0  0  0  0
 17 18  1  0  0  0  0
 17 45  1  0  0  0  0
 17 46  1  0  0  0  0
 18 13  1  0  0  0  0
 18 47  1  0  0  0  0
 18 48  1  0  0  0  0
 19 20  2  0  0  0  0
 20 21  1  0  0  0  0
 21 22  2  0  0  0  0
 21 49  1  0  0  0  0
 22 23  1  0  0  0  0
 23 24  2  0  0  0  0
 23 25  1  0  0  0  0
 24 19  1  0  0  0  0
 25 26  1  0  0  0  0
 25 50  1  0  0  0  0
 26 27  2  0  0  0  0
 27 24  1  0  0  0  0
 27 51  1  0  0  0  0
 28 29  1  0  0  0  0
 28 30  1  0  0  0  0
 28 31  1  0  0  0  0
M  END
>  <Mol_ID>
8168

>  <Formula>
C21H19F4N7

>  <MolWeight>
445.4160728

>  <Cat>
S7698

>  <Name>
LY2584702

>  <Synonyms>
N/A

>  <Target>
S6 Kinase

>  <Form>
Free Base

>  <CAS>
1082949-67-4

>  <URL>
http://selleckchem.com/products/ly2584702.html

$$$$
