LY2811376.cdx
 OpenBabel08302521453D

 36 38  0  0  0  0  0  0  0  0999 V2000
    0.0807    1.3014   -0.0646 C   0  0  0  0  0  0  0  0  0  0  0  0
    1.1198    0.6502    0.4690 N   0  0  0  0  0  0  0  0  0  0  0  0
    1.0107   -0.6954    0.5139 C   0  0  0  0  0  0  0  0  0  0  0  0
   -0.0811   -1.4239    0.0517 C   0  0  0  0  0  0  0  0  0  0  0  0
   -1.0812   -0.6169   -0.4744 C   0  0  0  0  0  0  0  0  0  0  0  0
   -1.0295    0.7329   -0.5513 N   0  0  0  0  0  0  0  0  0  0  0  0
   -0.1541   -2.8963    0.0965 C   0  0  0  0  0  0  0  0  0  0  0  0
    0.4116   -3.6403    1.1415 C   0  0  0  0  0  0  0  0  0  0  0  0
    0.3662   -5.0292    1.1704 C   0  0  0  0  0  0  0  0  0  0  0  0
   -0.2622   -5.7207    0.1393 C   0  0  0  0  0  0  0  0  0  0  0  0
   -0.8590   -5.0479   -0.9301 C   0  0  0  0  0  0  0  0  0  0  0  0
   -0.7921   -3.6299   -0.9235 C   0  0  0  0  0  0  0  0  0  0  0  0
    1.0154   -3.0221    2.1684 F   0  0  0  0  0  0  0  0  0  0  0  0
   -0.2706   -7.0573    0.2217 F   0  0  0  0  0  0  0  0  0  0  0  0
   -1.6180   -5.7351   -2.0813 C   0  0  1  0  0  0  0  0  0  0  0  0
   -2.9734   -5.1769   -2.0454 N   0  0  0  0  0  0  0  0  0  0  0  0
   -3.6839   -4.8435   -3.0469 C   0  0  0  0  0  0  0  0  0  0  0  0
   -3.1960   -4.9717   -4.6977 S   0  0  0  0  0  0  0  0  0  0  0  0
   -1.4475   -4.6360   -4.4667 C   0  0  0  0  0  0  0  0  0  0  0  0
   -0.8285   -5.5240   -3.4045 C   0  0  0  0  0  0  0  0  0  0  0  0
   -1.8001   -7.2601   -1.8996 C   0  0  0  0  0  0  0  0  0  0  0  0
   -4.9368   -4.3659   -2.8676 N   0  0  0  0  0  0  0  0  0  0  0  0
    0.1445    2.3825   -0.1095 H   0  0  0  0  0  0  0  0  0  0  0  0
    1.8759   -1.1890    0.9453 H   0  0  0  0  0  0  0  0  0  0  0  0
   -2.0030   -1.0388   -0.8654 H   0  0  0  0  0  0  0  0  0  0  0  0
    0.8142   -5.5717    1.9929 H   0  0  0  0  0  0  0  0  0  0  0  0
   -1.2651   -3.0974   -1.7481 H   0  0  0  0  0  0  0  0  0  0  0  0
   -1.2960   -3.5779   -4.2336 H   0  0  0  0  0  0  0  0  0  0  0  0
   -0.9471   -4.8257   -5.4235 H   0  0  0  0  0  0  0  0  0  0  0  0
   -0.6325   -6.4988   -3.8740 H   0  0  0  0  0  0  0  0  0  0  0  0
    0.1799   -5.1388   -3.1951 H   0  0  0  0  0  0  0  0  0  0  0  0
   -0.8368   -7.7844   -1.8873 H   0  0  0  0  0  0  0  0  0  0  0  0
   -2.3382   -7.5004   -0.9766 H   0  0  0  0  0  0  0  0  0  0  0  0
   -2.3837   -7.6849   -2.7261 H   0  0  0  0  0  0  0  0  0  0  0  0
   -5.5528   -4.4633   -3.6642 H   0  0  0  0  0  0  0  0  0  0  0  0
   -5.3431   -4.6512   -1.9839 H   0  0  0  0  0  0  0  0  0  0  0  0
  1  2  2  0  0  0  0
  1 23  1  0  0  0  0
  2  3  1  0  0  0  0
  3  4  2  0  0  0  0
  3 24  1  0  0  0  0
  4  5  1  0  0  0  0
  4  7  1  0  0  0  0
  5  6  2  0  0  0  0
  5 25  1  0  0  0  0
  6  1  1  0  0  0  0
  7  8  2  0  0  0  0
  8  9  1  0  0  0  0
  8 13  1  0  0  0  0
  9 10  2  0  0  0  0
  9 26  1  0  0  0  0
 10 11  1  0  0  0  0
 10 14  1  0  0  0  0
 11 12  2  0  0  0  0
 12  7  1  0  0  0  0
 12 27  1  0  0  0  0
 15 16  1  0  0  0  0
 15 11  1  0  0  0  0
 15 21  1  1  0  0  0
 16 17  2  0  0  0  0
 17 18  1  0  0  0  0
 17 22  1  0  0  0  0
 18 19  1  0  0  0  0
 19 20  1  0  0  0  0
 19 28  1  0  0  0  0
 19 29  1  0  0  0  0
 20 15  1  0  0  0  0
 20 30  1  0  0  0  0
 20 31  1  0  0  0  0
 21 32  1  0  0  0  0
 21 33  1  0  0  0  0
 21 34  1  0  0  0  0
 22 35  1  0  0  0  0
 22 36  1  0  0  0  0
M  END
>  <Mol_ID>
966

>  <Formula>
C15H14F2N4S

>  <MolWeight>
320.3602664

>  <Cat>
S1528

>  <Name>
LY2811376

>  <Synonyms>
N/A

>  <Target>
BACE,Beta Amyloid

>  <Form>
free base

>  <CAS>
1194044-20-6

>  <URL>
http://selleckchem.com/products/LY2811376.html

$$$$
