LY 3200882
 OpenBabel08302521223D

 61 65  0  0  0  0  0  0  0  0999 V2000
    4.9397    2.9934    1.0549 C   0  0  0  0  0  0  0  0  0  0  0  0
    3.9839    3.7996    1.5849 N   0  0  0  0  0  0  0  0  0  0  0  0
    2.6987    3.3876    1.4979 C   0  0  0  0  0  0  0  0  0  0  0  0
    2.3048    2.1902    0.9275 C   0  0  0  0  0  0  0  0  0  0  0  0
    3.2885    1.3362    0.4448 C   0  0  0  0  0  0  0  0  0  0  0  0
    4.6160    1.7691    0.4740 C   0  0  0  0  0  0  0  0  0  0  0  0
    6.4024    3.4204    1.1700 C   0  0  0  0  0  0  0  0  0  0  0  0
    6.5463    4.9466    1.1751 C   0  0  0  0  0  0  0  0  0  0  0  0
    7.0138    2.8188    2.4399 C   0  0  0  0  0  0  0  0  0  0  0  0
    7.1517    2.9316    0.0434 O   0  0  0  0  0  0  0  0  0  0  0  0
    2.9108    0.1225   -0.1897 N   0  0  0  0  0  0  0  0  0  0  0  0
    3.6994   -1.0567   -0.1146 C   0  0  0  0  0  0  0  0  0  0  0  0
    4.5795   -1.2134    0.9011 N   0  0  0  0  0  0  0  0  0  0  0  0
    5.3146   -2.3402    0.9559 C   0  0  0  0  0  0  0  0  0  0  0  0
    5.2004   -3.3633    0.0428 C   0  0  0  0  0  0  0  0  0  0  0  0
    4.2349   -3.2339   -0.9478 C   0  0  0  0  0  0  0  0  0  0  0  0
    3.4843   -2.0666   -1.0429 C   0  0  0  0  0  0  0  0  0  0  0  0
    4.0041   -4.1923   -1.9043 O   0  0  0  0  0  0  0  0  0  0  0  0
    4.0638   -5.5114   -1.6268 C   0  0  0  0  0  0  0  0  0  0  0  0
    3.8550   -6.1208   -0.4156 C   0  0  0  0  0  0  0  0  0  0  0  0
    4.0471   -7.4505   -0.6450 N   0  0  0  0  0  0  0  0  0  0  0  0
    4.2763   -7.7530   -1.9379 N   0  0  0  0  0  0  0  0  0  0  0  0
    4.2715   -6.5595   -2.5548 C   0  0  0  0  0  0  0  0  0  0  0  0
    4.0289   -8.4244    0.4219 C   0  0  0  0  0  0  0  0  0  0  0  0
    4.4394   -6.4614   -4.0477 C   0  0  0  0  0  0  0  0  0  0  0  0
    5.6348   -5.5818   -4.4450 C   0  0  0  0  0  0  0  0  0  0  0  0
    5.6576   -5.3159   -5.9432 C   0  0  0  0  0  0  0  0  0  0  0  0
    4.4153   -4.7671   -6.3761 O   0  0  0  0  0  0  0  0  0  0  0  0
    3.3370   -5.6781   -6.1829 C   0  0  0  0  0  0  0  0  0  0  0  0
    3.1406   -5.9645   -4.7045 C   0  0  0  0  0  0  0  0  0  0  0  0
    4.9213   -9.6530    0.3846 C   0  0  0  0  0  0  0  0  0  0  0  0
    3.4482   -9.8123    0.2264 C   0  0  0  0  0  0  0  0  0  0  0  0
    1.9669    4.0709    1.9172 H   0  0  0  0  0  0  0  0  0  0  0  0
    1.2556    1.9156    0.8942 H   0  0  0  0  0  0  0  0  0  0  0  0
    5.4083    1.1476    0.0660 H   0  0  0  0  0  0  0  0  0  0  0  0
    6.0486    5.4054    2.0362 H   0  0  0  0  0  0  0  0  0  0  0  0
    7.6021    5.2399    1.1965 H   0  0  0  0  0  0  0  0  0  0  0  0
    6.1213    5.3793    0.2616 H   0  0  0  0  0  0  0  0  0  0  0  0
    6.9719    1.7230    2.4176 H   0  0  0  0  0  0  0  0  0  0  0  0
    8.0741    3.0830    2.5266 H   0  0  0  0  0  0  0  0  0  0  0  0
    6.4967    3.1602    3.3433 H   0  0  0  0  0  0  0  0  0  0  0  0
    8.0726    3.2157    0.1642 H   0  0  0  0  0  0  0  0  0  0  0  0
    2.7424    0.3346   -1.1707 H   0  0  0  0  0  0  0  0  0  0  0  0
    6.0178   -2.3941    1.7811 H   0  0  0  0  0  0  0  0  0  0  0  0
    5.8395   -4.2339    0.1202 H   0  0  0  0  0  0  0  0  0  0  0  0
    2.7543   -1.9537   -1.8360 H   0  0  0  0  0  0  0  0  0  0  0  0
    3.6103   -5.7376    0.5634 H   0  0  0  0  0  0  0  0  0  0  0  0
    3.8693   -7.9785    1.3999 H   0  0  0  0  0  0  0  0  0  0  0  0
    4.6370   -7.4687   -4.4401 H   0  0  0  0  0  0  0  0  0  0  0  0
    5.5803   -4.6157   -3.9305 H   0  0  0  0  0  0  0  0  0  0  0  0
    6.5758   -6.0529   -4.1346 H   0  0  0  0  0  0  0  0  0  0  0  0
    6.4414   -4.5881   -6.1778 H   0  0  0  0  0  0  0  0  0  0  0  0
    5.8739   -6.2276   -6.5121 H   0  0  0  0  0  0  0  0  0  0  0  0
    3.5243   -6.5972   -6.7503 H   0  0  0  0  0  0  0  0  0  0  0  0
    2.4325   -5.2161   -6.5919 H   0  0  0  0  0  0  0  0  0  0  0  0
    2.3394   -6.7006   -4.5679 H   0  0  0  0  0  0  0  0  0  0  0  0
    2.8095   -5.0395   -4.2164 H   0  0  0  0  0  0  0  0  0  0  0  0
    5.5444   -9.8119   -0.4897 H   0  0  0  0  0  0  0  0  0  0  0  0
    5.3764   -9.9720    1.3145 H   0  0  0  0  0  0  0  0  0  0  0  0
    2.8873  -10.2386    1.0487 H   0  0  0  0  0  0  0  0  0  0  0  0
    3.0669  -10.0738   -0.7543 H   0  0  0  0  0  0  0  0  0  0  0  0
  1  2  2  0  0  0  0
  1  7  1  0  0  0  0
  2  3  1  0  0  0  0
  3  4  2  0  0  0  0
  3 33  1  0  0  0  0
  4  5  1  0  0  0  0
  4 34  1  0  0  0  0
  5  6  2  0  0  0  0
  5 11  1  0  0  0  0
  6  1  1  0  0  0  0
  6 35  1  0  0  0  0
  7  8  1  0  0  0  0
  7  9  1  0  0  0  0
  7 10  1  0  0  0  0
  8 36  1  0  0  0  0
  8 37  1  0  0  0  0
  8 38  1  0  0  0  0
  9 39  1  0  0  0  0
  9 40  1  0  0  0  0
  9 41  1  0  0  0  0
 10 42  1  0  0  0  0
 11 12  1  0  0  0  0
 11 43  1  0  0  0  0
 12 13  2  0  0  0  0
 13 14  1  0  0  0  0
 14 15  2  0  0  0  0
 14 44  1  0  0  0  0
 15 16  1  0  0  0  0
 15 45  1  0  0  0  0
 16 17  2  0  0  0  0
 16 18  1  0  0  0  0
 17 12  1  0  0  0  0
 17 46  1  0  0  0  0
 18 19  1  0  0  0  0
 19 20  2  0  0  0  0
 20 21  1  0  0  0  0
 20 47  1  0  0  0  0
 21 22  1  0  0  0  0
 21 24  1  0  0  0  0
 22 23  2  0  0  0  0
 23 19  1  0  0  0  0
 23 25  1  0  0  0  0
 24 31  1  0  0  0  0
 24 48  1  0  0  0  0
 25 26  1  0  0  0  0
 25 49  1  0  0  0  0
 26 27  1  0  0  0  0
 26 50  1  0  0  0  0
 26 51  1  0  0  0  0
 27 28  1  0  0  0  0
 27 52  1  0  0  0  0
 27 53  1  0  0  0  0
 28 29  1  0  0  0  0
 29 30  1  0  0  0  0
 29 54  1  0  0  0  0
 29 55  1  0  0  0  0
 30 25  1  0  0  0  0
 30 56  1  0  0  0  0
 30 57  1  0  0  0  0
 31 32  1  0  0  0  0
 31 58  1  0  0  0  0
 31 59  1  0  0  0  0
 32 24  1  0  0  0  0
 32 60  1  0  0  0  0
 32 61  1  0  0  0  0
M  END
>  <Mol_ID>
4598

>  <Formula>
C24H29N5O3

>  <MolWeight>
435.51876

>  <Cat>
S8772

>  <Name>
LY 3200882

>  <Synonyms>
N/A

>  <Target>
TGF-beta/Smad

>  <Form>
Free Base

>  <CAS>
1898283-02-7

>  <URL>
http://www.selleckchem.com/products/ly3200882.html

$$$$
