LY 411575.cdx
 OpenBabel08302521383D

 58 61  0  0  0  0  0  0  0  0999 V2000
    5.2366   -4.2414   -5.0067 C   0  0  0  0  0  0  0  0  0  0  0  0
    4.1919   -4.9369   -5.5976 C   0  0  0  0  0  0  0  0  0  0  0  0
    2.9019   -4.4643   -5.4206 C   0  0  0  0  0  0  0  0  0  0  0  0
    2.6437   -3.3290   -4.6524 C   0  0  0  0  0  0  0  0  0  0  0  0
    3.6893   -2.6392   -4.0188 C   0  0  0  0  0  0  0  0  0  0  0  0
    5.0029   -3.1022   -4.2281 C   0  0  0  0  0  0  0  0  0  0  0  0
    6.4928   -4.6701   -5.1940 F   0  0  0  0  0  0  0  0  0  0  0  0
    1.8789   -5.1034   -6.0034 F   0  0  0  0  0  0  0  0  0  0  0  0
    3.3744   -1.3995   -3.1896 C   0  0  1  0  0  0  0  0  0  0  0  0
    3.6296   -1.5987   -1.6482 C   0  0  0  0  0  0  0  0  0  0  0  0
    2.7088   -2.1982   -0.8073 N   0  0  0  0  0  0  0  0  0  0  0  0
    4.7307   -1.2795   -1.1745 O   0  0  0  0  0  0  0  0  0  0  0  0
    1.2986   -1.7709   -0.4221 C   0  0  2  0  0  0  0  0  0  0  0  0
    0.3900   -2.9253    0.1500 C   0  0  0  0  0  0  0  0  0  0  0  0
   -0.9888   -2.9004    0.2333 N   0  0  0  0  0  0  0  0  0  0  0  0
    0.9226   -3.9933    0.5109 O   0  0  0  0  0  0  0  0  0  0  0  0
   -2.0606   -2.0697    1.0372 C   0  0  1  0  0  0  0  0  0  0  0  0
   -3.6014   -2.0345    0.6673 C   0  0  0  0  0  0  0  0  0  0  0  0
   -4.2608   -3.1786    0.1927 C   0  0  0  0  0  0  0  0  0  0  0  0
   -3.5104   -4.4024    0.0447 C   0  0  0  0  0  0  0  0  0  0  0  0
   -2.7647   -4.9372    1.1449 C   0  0  0  0  0  0  0  0  0  0  0  0
   -2.4808   -4.1782    2.3586 N   0  0  0  0  0  0  0  0  0  0  0  0
   -2.1510   -2.7913    2.4002 C   0  0  0  0  0  0  0  0  0  0  0  0
   -1.9954   -2.1568    3.4486 O   0  0  0  0  0  0  0  0  0  0  0  0
   -2.3232   -4.8381    3.6387 C   0  0  0  0  0  0  0  0  0  0  0  0
   -3.5327   -5.0058   -1.2267 C   0  0  0  0  0  0  0  0  0  0  0  0
   -2.7756   -6.1350   -1.4644 C   0  0  0  0  0  0  0  0  0  0  0  0
   -2.0460   -6.6797   -0.4124 C   0  0  0  0  0  0  0  0  0  0  0  0
   -2.0615   -6.1219    0.8830 C   0  0  0  0  0  0  0  0  0  0  0  0
   -4.4746   -1.0688    1.2330 C   0  0  0  0  0  0  0  0  0  0  0  0
   -5.8907   -1.1846    1.1767 C   0  0  0  0  0  0  0  0  0  0  0  0
   -6.4939   -2.2544    0.5320 C   0  0  0  0  0  0  0  0  0  0  0  0
   -5.6656   -3.2506    0.0527 C   0  0  0  0  0  0  0  0  0  0  0  0
    0.5938   -1.0619   -1.5482 C   0  0  0  0  0  0  0  0  0  0  0  0
    4.0971   -0.3301   -3.8068 O   0  0  0  0  0  0  0  0  0  0  0  0
    4.3801   -5.8238   -6.1920 H   0  0  0  0  0  0  0  0  0  0  0  0
    1.6177   -2.9835   -4.5703 H   0  0  0  0  0  0  0  0  0  0  0  0
    5.8587   -2.5768   -3.8093 H   0  0  0  0  0  0  0  0  0  0  0  0
    2.3354   -1.1345   -3.3407 H   0  0  0  0  0  0  0  0  0  0  0  0
    3.2279   -2.4434    0.0396 H   0  0  0  0  0  0  0  0  0  0  0  0
    1.4470   -1.0858    0.4211 H   0  0  0  0  0  0  0  0  0  0  0  0
   -1.1031   -3.8515    0.5467 H   0  0  0  0  0  0  0  0  0  0  0  0
   -1.6693   -1.0540    1.1522 H   0  0  0  0  0  0  0  0  0  0  0  0
   -1.2558   -4.8745    3.8805 H   0  0  0  0  0  0  0  0  0  0  0  0
   -2.8078   -4.2313    4.4173 H   0  0  0  0  0  0  0  0  0  0  0  0
   -2.7714   -5.8313    3.6589 H   0  0  0  0  0  0  0  0  0  0  0  0
   -4.0953   -4.5546   -2.0470 H   0  0  0  0  0  0  0  0  0  0  0  0
   -2.7418   -6.5461   -2.4681 H   0  0  0  0  0  0  0  0  0  0  0  0
   -1.3874   -7.5222   -0.6379 H   0  0  0  0  0  0  0  0  0  0  0  0
   -1.3901   -6.5426    1.6221 H   0  0  0  0  0  0  0  0  0  0  0  0
   -4.0778   -0.2614    1.8457 H   0  0  0  0  0  0  0  0  0  0  0  0
   -6.5285   -0.4772    1.7062 H   0  0  0  0  0  0  0  0  0  0  0  0
   -7.5818   -2.3584    0.4949 H   0  0  0  0  0  0  0  0  0  0  0  0
   -6.1439   -4.1579   -0.3535 H   0  0  0  0  0  0  0  0  0  0  0  0
   -0.4299   -0.8009   -1.2777 H   0  0  0  0  0  0  0  0  0  0  0  0
    1.1236   -0.1350   -1.7882 H   0  0  0  0  0  0  0  0  0  0  0  0
    0.5485   -1.7007   -2.4351 H   0  0  0  0  0  0  0  0  0  0  0  0
    4.6837    0.0524   -3.1309 H   0  0  0  0  0  0  0  0  0  0  0  0
  1  2  2  0  0  0  0
  1  7  1  0  0  0  0
  2  3  1  0  0  0  0
  2 36  1  0  0  0  0
  3  4  2  0  0  0  0
  3  8  1  0  0  0  0
  4  5  1  0  0  0  0
  4 37  1  0  0  0  0
  5  6  2  0  0  0  0
  5  9  1  0  0  0  0
  6  1  1  0  0  0  0
  6 38  1  0  0  0  0
  9 10  1  0  0  0  0
  9 35  1  0  0  0  0
  9 39  1  6  0  0  0
 10 11  1  0  0  0  0
 10 12  2  0  0  0  0
 11 40  1  0  0  0  0
 13 34  1  0  0  0  0
 13 41  1  1  0  0  0
 13 14  1  0  0  0  0
 13 11  1  0  0  0  0
 14 15  1  0  0  0  0
 14 16  2  0  0  0  0
 15 42  1  0  0  0  0
 17 15  1  0  0  0  0
 17 18  1  0  0  0  0
 17 43  1  1  0  0  0
 18 19  2  0  0  0  0
 18 30  1  0  0  0  0
 19 20  1  0  0  0  0
 20 21  2  0  0  0  0
 20 26  1  0  0  0  0
 21 22  1  0  0  0  0
 22 23  1  0  0  0  0
 22 25  1  0  0  0  0
 23 17  1  0  0  0  0
 23 24  2  0  0  0  0
 25 44  1  0  0  0  0
 25 45  1  0  0  0  0
 25 46  1  0  0  0  0
 26 27  2  0  0  0  0
 26 47  1  0  0  0  0
 27 28  1  0  0  0  0
 27 48  1  0  0  0  0
 28 29  2  0  0  0  0
 28 49  1  0  0  0  0
 29 21  1  0  0  0  0
 29 50  1  0  0  0  0
 30 31  2  0  0  0  0
 30 51  1  0  0  0  0
 31 32  1  0  0  0  0
 31 52  1  0  0  0  0
 32 33  2  0  0  0  0
 32 53  1  0  0  0  0
 33 19  1  0  0  0  0
 33 54  1  0  0  0  0
 34 55  1  0  0  0  0
 34 56  1  0  0  0  0
 34 57  1  0  0  0  0
 35 58  1  0  0  0  0
M  END
>  <Mol_ID>
752

>  <Formula>
C26H23F2N3O4

>  <MolWeight>
479.4753264

>  <Cat>
S2714

>  <Name>
LY411575

>  <Synonyms>
N/A

>  <Target>
Apoptosis related,Notch,Secretase

>  <Form>
free base

>  <CAS>
209984-57-6

>  <URL>
http://selleckchem.com/products/ly-411575.html

$$$$
