M344.cdx
 OpenBabel08302521313D

 47 47  0  0  0  0  0  0  0  0999 V2000
    1.4184   -0.0964    0.3815 C   0  0  0  0  0  0  0  0  0  0  0  0
    0.5628   -0.5207    1.4126 C   0  0  0  0  0  0  0  0  0  0  0  0
   -0.8214   -0.2972    1.3824 C   0  0  0  0  0  0  0  0  0  0  0  0
   -1.4104    0.3759    0.3144 C   0  0  0  0  0  0  0  0  0  0  0  0
   -0.5969    0.8007   -0.7351 C   0  0  0  0  0  0  0  0  0  0  0  0
    0.7890    0.5707   -0.6890 C   0  0  0  0  0  0  0  0  0  0  0  0
    2.7955   -0.2866    0.4191 N   0  0  0  0  0  0  0  0  0  0  0  0
    3.4767   -1.0063    1.4930 C   0  0  0  0  0  0  0  0  0  0  0  0
    3.5909   -0.1066   -0.7943 C   0  0  0  0  0  0  0  0  0  0  0  0
   -2.8876    0.5761    0.3365 C   0  0  0  0  0  0  0  0  0  0  0  0
   -3.3840    1.6427   -0.3870 N   0  0  0  0  0  0  0  0  0  0  0  0
   -3.5983   -0.1655    1.0036 O   0  0  0  0  0  0  0  0  0  0  0  0
   -4.8031    1.9274   -0.4150 C   0  0  0  0  0  0  0  0  0  0  0  0
   -5.2362    2.7826    0.7748 C   0  0  0  0  0  0  0  0  0  0  0  0
   -6.7356    3.1008    0.7736 C   0  0  0  0  0  0  0  0  0  0  0  0
   -7.6657    1.8859    0.8767 C   0  0  0  0  0  0  0  0  0  0  0  0
   -7.4385    0.9908    2.0969 C   0  0  0  0  0  0  0  0  0  0  0  0
   -7.6706    1.7074    3.4252 C   0  0  0  0  0  0  0  0  0  0  0  0
   -7.4855    0.7673    4.5934 C   0  0  0  0  0  0  0  0  0  0  0  0
   -6.2045    0.3073    4.7593 N   0  0  0  0  0  0  0  0  0  0  0  0
   -8.4022    0.4383    5.3438 O   0  0  0  0  0  0  0  0  0  0  0  0
   -5.9801   -0.5362    5.8695 O   0  0  0  0  0  0  0  0  0  0  0  0
    0.9381   -1.0497    2.2804 H   0  0  0  0  0  0  0  0  0  0  0  0
   -1.4360   -0.6550    2.2084 H   0  0  0  0  0  0  0  0  0  0  0  0
   -1.0134    1.2917   -1.6087 H   0  0  0  0  0  0  0  0  0  0  0  0
    1.3726    0.9369   -1.5300 H   0  0  0  0  0  0  0  0  0  0  0  0
    3.7214   -2.0248    1.1726 H   0  0  0  0  0  0  0  0  0  0  0  0
    4.4147   -0.4926    1.7354 H   0  0  0  0  0  0  0  0  0  0  0  0
    2.9240   -1.0629    2.4325 H   0  0  0  0  0  0  0  0  0  0  0  0
    3.2024   -0.7169   -1.6172 H   0  0  0  0  0  0  0  0  0  0  0  0
    3.6128    0.9475   -1.0948 H   0  0  0  0  0  0  0  0  0  0  0  0
    4.6335   -0.4092   -0.6368 H   0  0  0  0  0  0  0  0  0  0  0  0
   -2.7469    2.3298   -0.7672 H   0  0  0  0  0  0  0  0  0  0  0  0
   -5.0072    2.4521   -1.3555 H   0  0  0  0  0  0  0  0  0  0  0  0
   -5.3445    0.9770   -0.4326 H   0  0  0  0  0  0  0  0  0  0  0  0
   -4.9540    2.2974    1.7169 H   0  0  0  0  0  0  0  0  0  0  0  0
   -4.6812    3.7288    0.7522 H   0  0  0  0  0  0  0  0  0  0  0  0
   -6.9481    3.7908    1.5991 H   0  0  0  0  0  0  0  0  0  0  0  0
   -6.9820    3.6476   -0.1448 H   0  0  0  0  0  0  0  0  0  0  0  0
   -8.7035    2.2416    0.8829 H   0  0  0  0  0  0  0  0  0  0  0  0
   -7.5659    1.2738   -0.0273 H   0  0  0  0  0  0  0  0  0  0  0  0
   -8.1241    0.1359    2.0323 H   0  0  0  0  0  0  0  0  0  0  0  0
   -6.4309    0.5620    2.0622 H   0  0  0  0  0  0  0  0  0  0  0  0
   -6.9833    2.5499    3.5566 H   0  0  0  0  0  0  0  0  0  0  0  0
   -8.6906    2.1082    3.4663 H   0  0  0  0  0  0  0  0  0  0  0  0
   -5.3884    0.6822    4.2867 H   0  0  0  0  0  0  0  0  0  0  0  0
   -6.8880   -0.6513    6.2270 H   0  0  0  0  0  0  0  0  0  0  0  0
  1  2  2  0  0  0  0
  1  7  1  0  0  0  0
  2  3  1  0  0  0  0
  2 23  1  0  0  0  0
  3  4  2  0  0  0  0
  3 24  1  0  0  0  0
  4  5  1  0  0  0  0
  4 10  1  0  0  0  0
  5  6  2  0  0  0  0
  5 25  1  0  0  0  0
  6  1  1  0  0  0  0
  6 26  1  0  0  0  0
  7  8  1  0  0  0  0
  7  9  1  0  0  0  0
  8 27  1  0  0  0  0
  8 28  1  0  0  0  0
  8 29  1  0  0  0  0
  9 30  1  0  0  0  0
  9 31  1  0  0  0  0
  9 32  1  0  0  0  0
 10 11  1  0  0  0  0
 10 12  2  0  0  0  0
 11 13  1  0  0  0  0
 11 33  1  0  0  0  0
 13 14  1  0  0  0  0
 13 34  1  0  0  0  0
 13 35  1  0  0  0  0
 14 15  1  0  0  0  0
 14 36  1  0  0  0  0
 14 37  1  0  0  0  0
 15 16  1  0  0  0  0
 15 38  1  0  0  0  0
 15 39  1  0  0  0  0
 16 17  1  0  0  0  0
 16 40  1  0  0  0  0
 16 41  1  0  0  0  0
 17 18  1  0  0  0  0
 17 42  1  0  0  0  0
 17 43  1  0  0  0  0
 18 19  1  0  0  0  0
 18 44  1  0  0  0  0
 18 45  1  0  0  0  0
 19 20  1  0  0  0  0
 19 21  2  0  0  0  0
 20 22  1  0  0  0  0
 20 46  1  0  0  0  0
 22 47  1  0  0  0  0
M  END
>  <Mol_ID>
557

>  <Formula>
C16H25N3O3

>  <MolWeight>
307.388

>  <Cat>
S2779

>  <Name>
M344

>  <Synonyms>
N/A

>  <Target>
HDAC

>  <Form>
free base

>  <CAS>
251456-60-7

>  <URL>
http://selleckchem.com/products/m344.html

$$$$
