Mal-?PEG4-?NHS ester
 OpenBabel08302521313D

 57 58  0  0  0  0  0  0  0  0999 V2000
   -2.0782    2.6056    0.3972 O   0  0  0  0  0  0  0  0  0  0  0  0
    4.4544   -0.1405    2.8089 O   0  0  0  0  0  0  0  0  0  0  0  0
   -0.0997    1.4846   -2.5452 O   0  0  0  0  0  0  0  0  0  0  0  0
    2.8720   -0.3941    0.4466 O   0  0  0  0  0  0  0  0  0  0  0  0
    1.2801   -1.8800   -1.7954 O   0  0  0  0  0  0  0  0  0  0  0  0
    7.2744   -0.3762    3.3933 O   0  0  0  0  0  0  0  0  0  0  0  0
    3.9070    2.5918    2.5303 O   0  0  0  0  0  0  0  0  0  0  0  0
   -2.9667    1.6474    4.9027 O   0  0  0  0  0  0  0  0  0  0  0  0
   -2.0554    5.9034    3.5729 O   0  0  0  0  0  0  0  0  0  0  0  0
    3.3231    0.2107    4.7715 O   0  0  0  0  0  0  0  0  0  0  0  0
    5.3387    0.8804    3.1532 N   0  0  0  0  0  0  0  0  0  0  0  0
   -2.7729    3.7187    3.8682 N   0  0  0  0  0  0  0  0  0  0  0  0
    7.2914    2.0385    3.5154 C   0  0  0  0  0  0  0  0  0  0  0  0
    6.2143    3.0149    3.0675 C   0  0  0  0  0  0  0  0  0  0  0  0
    6.6595    0.6789    3.3600 C   0  0  0  0  0  0  0  0  0  0  0  0
    4.9923    2.1679    2.8938 C   0  0  0  0  0  0  0  0  0  0  0  0
   -3.0619    3.3525    2.4919 C   0  0  0  0  0  0  0  0  0  0  0  0
   -1.7748    3.0505    1.7223 C   0  0  0  0  0  0  0  0  0  0  0  0
   -0.8816    2.2791   -0.3185 C   0  0  0  0  0  0  0  0  0  0  0  0
   -1.2259    1.7859   -1.7235 C   0  0  0  0  0  0  0  0  0  0  0  0
    2.1222   -0.5999    2.8382 C   0  0  0  0  0  0  0  0  0  0  0  0
    1.9582    0.0226    1.4548 C   0  0  0  0  0  0  0  0  0  0  0  0
    0.8212    0.5013   -2.0707 C   0  0  0  0  0  0  0  0  0  0  0  0
    0.2404   -0.9038   -1.9002 C   0  0  0  0  0  0  0  0  0  0  0  0
    2.8869   -1.7725    0.0816 C   0  0  0  0  0  0  0  0  0  0  0  0
    1.5780   -2.3475   -0.4793 C   0  0  0  0  0  0  0  0  0  0  0  0
   -2.7229    2.8420    4.8991 C   0  0  0  0  0  0  0  0  0  0  0  0
   -2.2797    4.9186    4.2503 C   0  0  0  0  0  0  0  0  0  0  0  0
    3.3401   -0.1268    3.5920 C   0  0  0  0  0  0  0  0  0  0  0  0
   -2.2442    3.5779    6.0739 C   0  0  0  0  0  0  0  0  0  0  0  0
   -1.9724    4.8239    5.6825 C   0  0  0  0  0  0  0  0  0  0  0  0
    7.5694    2.2080    4.5600 H   0  0  0  0  0  0  0  0  0  0  0  0
    8.1785    2.1239    2.8813 H   0  0  0  0  0  0  0  0  0  0  0  0
    6.0349    3.8072    3.7968 H   0  0  0  0  0  0  0  0  0  0  0  0
    6.4577    3.4528    2.0929 H   0  0  0  0  0  0  0  0  0  0  0  0
   -3.6035    4.1715    2.0096 H   0  0  0  0  0  0  0  0  0  0  0  0
   -3.7155    2.4716    2.4815 H   0  0  0  0  0  0  0  0  0  0  0  0
   -1.2063    2.2698    2.2434 H   0  0  0  0  0  0  0  0  0  0  0  0
   -1.1520    3.9509    1.6682 H   0  0  0  0  0  0  0  0  0  0  0  0
   -0.2233    3.1537   -0.3762 H   0  0  0  0  0  0  0  0  0  0  0  0
   -0.3548    1.4948    0.2295 H   0  0  0  0  0  0  0  0  0  0  0  0
   -1.9057    0.9280   -1.6864 H   0  0  0  0  0  0  0  0  0  0  0  0
   -1.7828    2.5788   -2.2381 H   0  0  0  0  0  0  0  0  0  0  0  0
    1.2596   -0.2680    3.4312 H   0  0  0  0  0  0  0  0  0  0  0  0
    2.1135   -1.6910    2.8123 H   0  0  0  0  0  0  0  0  0  0  0  0
    2.0589    1.1112    1.5234 H   0  0  0  0  0  0  0  0  0  0  0  0
    0.9419   -0.1626    1.0977 H   0  0  0  0  0  0  0  0  0  0  0  0
    1.6291    0.4510   -2.8096 H   0  0  0  0  0  0  0  0  0  0  0  0
    1.2944    0.8525   -1.1526 H   0  0  0  0  0  0  0  0  0  0  0  0
   -0.4635   -0.9601   -1.0620 H   0  0  0  0  0  0  0  0  0  0  0  0
   -0.3396   -1.1524   -2.7970 H   0  0  0  0  0  0  0  0  0  0  0  0
    3.2167   -2.3597    0.9444 H   0  0  0  0  0  0  0  0  0  0  0  0
    3.6655   -1.8690   -0.6841 H   0  0  0  0  0  0  0  0  0  0  0  0
    0.7332   -2.2188    0.2029 H   0  0  0  0  0  0  0  0  0  0  0  0
    1.7338   -3.4277   -0.5880 H   0  0  0  0  0  0  0  0  0  0  0  0
   -2.1150    3.1316    7.0462 H   0  0  0  0  0  0  0  0  0  0  0  0
   -1.5655    5.6346    6.2590 H   0  0  0  0  0  0  0  0  0  0  0  0
  1 18  1  0  0  0  0
  1 19  1  0  0  0  0
  2 11  1  0  0  0  0
  2 29  1  0  0  0  0
  3 20  1  0  0  0  0
  3 23  1  0  0  0  0
  4 22  1  0  0  0  0
  4 25  1  0  0  0  0
  5 24  1  0  0  0  0
  5 26  1  0  0  0  0
  6 15  2  0  0  0  0
  7 16  2  0  0  0  0
  8 27  2  0  0  0  0
  9 28  2  0  0  0  0
 10 29  2  0  0  0  0
 11 15  1  0  0  0  0
 11 16  1  0  0  0  0
 12 17  1  0  0  0  0
 12 27  1  0  0  0  0
 12 28  1  0  0  0  0
 13 14  1  0  0  0  0
 13 15  1  0  0  0  0
 13 32  1  0  0  0  0
 13 33  1  0  0  0  0
 14 16  1  0  0  0  0
 14 34  1  0  0  0  0
 14 35  1  0  0  0  0
 17 18  1  0  0  0  0
 17 36  1  0  0  0  0
 17 37  1  0  0  0  0
 18 38  1  0  0  0  0
 18 39  1  0  0  0  0
 19 20  1  0  0  0  0
 19 40  1  0  0  0  0
 19 41  1  0  0  0  0
 20 42  1  0  0  0  0
 20 43  1  0  0  0  0
 21 22  1  0  0  0  0
 21 29  1  0  0  0  0
 21 44  1  0  0  0  0
 21 45  1  0  0  0  0
 22 46  1  0  0  0  0
 22 47  1  0  0  0  0
 23 24  1  0  0  0  0
 23 48  1  0  0  0  0
 23 49  1  0  0  0  0
 24 50  1  0  0  0  0
 24 51  1  0  0  0  0
 25 26  1  0  0  0  0
 25 52  1  0  0  0  0
 25 53  1  0  0  0  0
 26 54  1  0  0  0  0
 26 55  1  0  0  0  0
 27 30  1  0  0  0  0
 28 31  1  0  0  0  0
 30 31  2  0  0  0  0
 30 56  1  0  0  0  0
 31 57  1  0  0  0  0
M  END
>  <Mol_ID>
5991

>  <Formula>
C19H26N2O10

>  <MolWeight>
442.41714

>  <Cat>
S0654

>  <Name>
Mal-?PEG4-?NHS ester

>  <Synonyms>
N/A

>  <Target>
ADC Linker

>  <Form>
Free Base

>  <CAS>
1325208-25-0

>  <URL>
http://www.selleckchem.com/products/mal-peg4-nhs-ester.html

$$$$
