Maleamic acid
 OpenBabel08302521293D

 13 12  0  0  0  0  0  0  0  0999 V2000
    1.0438   -0.0239   -0.0737 C   0  0  0  0  0  0  0  0  0  0  0  0
    0.1784   -0.8249   -0.9449 C   0  0  0  0  0  0  0  0  0  0  0  0
   -1.1588   -0.8401   -0.8655 C   0  0  0  0  0  0  0  0  0  0  0  0
   -2.0964   -0.0767   -0.0192 C   0  0  0  0  0  0  0  0  0  0  0  0
   -1.6428    0.4076    1.1439 O   0  0  0  0  0  0  0  0  0  0  0  0
   -3.2561    0.0689   -0.3804 O   0  0  0  0  0  0  0  0  0  0  0  0
    2.0363    0.6323   -0.7209 N   0  0  0  0  0  0  0  0  0  0  0  0
    0.8469    0.0706    1.1293 O   0  0  0  0  0  0  0  0  0  0  0  0
    0.6827   -1.4329   -1.6874 H   0  0  0  0  0  0  0  0  0  0  0  0
   -1.6963   -1.4547   -1.5848 H   0  0  0  0  0  0  0  0  0  0  0  0
   -0.7071    0.1984    1.3742 H   0  0  0  0  0  0  0  0  0  0  0  0
    2.6084    1.2687   -0.1784 H   0  0  0  0  0  0  0  0  0  0  0  0
    2.0913    0.6944   -1.7282 H   0  0  0  0  0  0  0  0  0  0  0  0
  1  2  1  0  0  0  0
  1  7  1  0  0  0  0
  1  8  2  0  0  0  0
  2  3  2  0  0  0  0
  2  9  1  0  0  0  0
  3  4  1  0  0  0  0
  3 10  1  0  0  0  0
  4  5  1  0  0  0  0
  4  6  2  0  0  0  0
  5 11  1  0  0  0  0
  7 12  1  0  0  0  0
  7 13  1  0  0  0  0
M  END
>  <Mol_ID>
5493

>  <Formula>
C4H5NO3

>  <MolWeight>
115.0874

>  <Cat>
S3330

>  <Name>
Maleamic acid

>  <Synonyms>
(Z)-4-Amino-4-oxobut-2-enoic acid

>  <Target>
Others

>  <Form>
Free Base

>  <CAS>
557-24-4

>  <URL>
https://www.selleckchem.com/products/maleamic-acid.html

$$$$
