Malotilate.cdx
 OpenBabel08302521363D

 34 34  0  0  0  0  0  0  0  0999 V2000
    0.9195    0.0226    0.3348 C   0  0  0  0  0  0  0  0  0  0  0  0
    0.1228   -1.2368    0.4655 C   0  0  0  0  0  0  0  0  0  0  0  0
   -0.6429   -1.6789   -0.7324 C   0  0  0  0  0  0  0  0  0  0  0  0
    1.9476    0.2720    0.9458 O   0  0  0  0  0  0  0  0  0  0  0  0
    0.3566    0.8559   -0.5796 O   0  0  0  0  0  0  0  0  0  0  0  0
   -0.2314   -1.5566   -1.8761 O   0  0  0  0  0  0  0  0  0  0  0  0
   -1.8775   -2.1497   -0.3972 O   0  0  0  0  0  0  0  0  0  0  0  0
    0.9474   -1.4477    3.0913 S   0  0  0  0  0  0  0  0  0  0  0  0
    0.1950   -1.9961    1.5888 C   0  0  0  0  0  0  0  0  0  0  0  0
   -0.4195   -3.6553    1.6777 S   0  0  0  0  0  0  0  0  0  0  0  0
    0.4117   -4.0233    3.1441 C   0  0  0  0  0  0  0  0  0  0  0  0
    1.0273   -3.0279    3.7855 C   0  0  0  0  0  0  0  0  0  0  0  0
    0.9703    2.1376   -0.8703 C   0  0  0  0  0  0  0  0  0  0  0  0
    0.8883    3.0814    0.3237 C   0  0  0  0  0  0  0  0  0  0  0  0
    2.3842    2.0408   -1.4437 C   0  0  0  0  0  0  0  0  0  0  0  0
   -2.7667   -2.5201   -1.4754 C   0  0  0  0  0  0  0  0  0  0  0  0
   -2.3428   -3.8238   -2.1541 C   0  0  0  0  0  0  0  0  0  0  0  0
   -4.1587   -2.6895   -0.8703 C   0  0  0  0  0  0  0  0  0  0  0  0
    0.4321   -5.0393    3.5138 H   0  0  0  0  0  0  0  0  0  0  0  0
    1.5723   -3.1797    4.7049 H   0  0  0  0  0  0  0  0  0  0  0  0
    0.3387    2.5640   -1.6585 H   0  0  0  0  0  0  0  0  0  0  0  0
    1.6467    2.8483    1.0773 H   0  0  0  0  0  0  0  0  0  0  0  0
    1.0469    4.1168    0.0031 H   0  0  0  0  0  0  0  0  0  0  0  0
   -0.0902    3.0105    0.8082 H   0  0  0  0  0  0  0  0  0  0  0  0
    2.3800    1.4871   -2.3880 H   0  0  0  0  0  0  0  0  0  0  0  0
    2.7926    3.0394   -1.6348 H   0  0  0  0  0  0  0  0  0  0  0  0
    3.0793    1.5234   -0.7770 H   0  0  0  0  0  0  0  0  0  0  0  0
   -2.7988   -1.7029   -2.2048 H   0  0  0  0  0  0  0  0  0  0  0  0
   -2.3047   -4.6488   -1.4374 H   0  0  0  0  0  0  0  0  0  0  0  0
   -3.0475   -4.0904   -2.9516 H   0  0  0  0  0  0  0  0  0  0  0  0
   -1.3468   -3.7408   -2.5948 H   0  0  0  0  0  0  0  0  0  0  0  0
   -4.4518   -1.7942   -0.3138 H   0  0  0  0  0  0  0  0  0  0  0  0
   -4.9060   -2.8807   -1.6464 H   0  0  0  0  0  0  0  0  0  0  0  0
   -4.1802   -3.5249   -0.1602 H   0  0  0  0  0  0  0  0  0  0  0  0
  1  2  1  0  0  0  0
  1  4  2  0  0  0  0
  1  5  1  0  0  0  0
  2  3  1  0  0  0  0
  2  9  2  0  0  0  0
  3  6  2  0  0  0  0
  3  7  1  0  0  0  0
  5 13  1  0  0  0  0
  7 16  1  0  0  0  0
  8  9  1  0  0  0  0
  8 12  1  0  0  0  0
  9 10  1  0  0  0  0
 10 11  1  0  0  0  0
 11 12  2  0  0  0  0
 11 19  1  0  0  0  0
 12 20  1  0  0  0  0
 13 14  1  0  0  0  0
 13 15  1  0  0  0  0
 13 21  1  0  0  0  0
 14 22  1  0  0  0  0
 14 23  1  0  0  0  0
 14 24  1  0  0  0  0
 15 25  1  0  0  0  0
 15 26  1  0  0  0  0
 15 27  1  0  0  0  0
 16 17  1  0  0  0  0
 16 18  1  0  0  0  0
 16 28  1  0  0  0  0
 17 29  1  0  0  0  0
 17 30  1  0  0  0  0
 17 31  1  0  0  0  0
 18 32  1  0  0  0  0
 18 33  1  0  0  0  0
 18 34  1  0  0  0  0
M  END
>  <Mol_ID>
80

>  <Formula>
C12H16O4S2

>  <MolWeight>
288.38304

>  <Cat>
S1137

>  <Name>
Malotilate

>  <Synonyms>
NKK105

>  <Target>
Lipoxygenase

>  <Form>
free base

>  <CAS>
59937-28-9

>  <URL>
http://selleckchem.com/products/Malotilate.html

$$$$
