Manogepix (E1210)
 OpenBabel08302521353D

 45 48  0  0  0  0  0  0  0  0999 V2000
   -1.2006   -0.7559    1.6073 C   0  0  0  0  0  0  0  0  0  0  0  0
   -1.8888    0.3674    2.0560 C   0  0  0  0  0  0  0  0  0  0  0  0
   -1.3133    1.1269    3.0578 C   0  0  0  0  0  0  0  0  0  0  0  0
   -0.1129    0.8548    3.6115 N   0  0  0  0  0  0  0  0  0  0  0  0
    0.5447   -0.2337    3.1645 C   0  0  0  0  0  0  0  0  0  0  0  0
    0.0334   -1.0924    2.1769 C   0  0  0  0  0  0  0  0  0  0  0  0
    0.7295   -2.3055    1.7805 C   0  0  0  0  0  0  0  0  0  0  0  0
    1.7854   -0.4441    3.7766 N   0  0  0  0  0  0  0  0  0  0  0  0
    1.5213   -3.2118    2.4416 C   0  0  0  0  0  0  0  0  0  0  0  0
    1.9491   -4.1143    1.4448 C   0  0  0  0  0  0  0  0  0  0  0  0
    1.4314   -3.7939    0.2496 N   0  0  0  0  0  0  0  0  0  0  0  0
    0.6494   -2.6684    0.4686 O   0  0  0  0  0  0  0  0  0  0  0  0
    2.9306   -5.2179    1.5951 C   0  0  0  0  0  0  0  0  0  0  0  0
    2.1735   -6.4511    2.0186 C   0  0  0  0  0  0  0  0  0  0  0  0
    1.6672   -7.3319    1.0527 C   0  0  0  0  0  0  0  0  0  0  0  0
    1.0835   -8.5422    1.4308 C   0  0  0  0  0  0  0  0  0  0  0  0
    0.9788   -8.8880    2.7836 C   0  0  0  0  0  0  0  0  0  0  0  0
    1.4365   -7.9858    3.7527 C   0  0  0  0  0  0  0  0  0  0  0  0
    2.0233   -6.7757    3.3749 C   0  0  0  0  0  0  0  0  0  0  0  0
    0.4372  -10.2372    3.1911 C   0  0  0  0  0  0  0  0  0  0  0  0
    1.5367  -11.1460    3.2805 O   0  0  0  0  0  0  0  0  0  0  0  0
    1.1520  -12.3989    3.7107 C   0  0  0  0  0  0  0  0  0  0  0  0
    2.1534  -13.3547    3.8154 C   0  0  0  0  0  0  0  0  0  0  0  0
    1.8035  -14.6290    4.2583 C   0  0  0  0  0  0  0  0  0  0  0  0
    0.4769  -14.8962    4.5779 C   0  0  0  0  0  0  0  0  0  0  0  0
   -0.4499  -13.8768    4.4387 C   0  0  0  0  0  0  0  0  0  0  0  0
   -0.1409  -12.6357    4.0099 N   0  0  0  0  0  0  0  0  0  0  0  0
   -1.6418   -1.3791    0.8326 H   0  0  0  0  0  0  0  0  0  0  0  0
   -2.8560    0.6339    1.6448 H   0  0  0  0  0  0  0  0  0  0  0  0
   -1.8167    2.0026    3.4578 H   0  0  0  0  0  0  0  0  0  0  0  0
    1.9322    0.3470    4.3992 H   0  0  0  0  0  0  0  0  0  0  0  0
    2.5198   -0.5116    3.0795 H   0  0  0  0  0  0  0  0  0  0  0  0
    1.7832   -3.1989    3.4888 H   0  0  0  0  0  0  0  0  0  0  0  0
    3.4779   -5.4026    0.6637 H   0  0  0  0  0  0  0  0  0  0  0  0
    3.6833   -4.9611    2.3509 H   0  0  0  0  0  0  0  0  0  0  0  0
    1.7512   -7.0899   -0.0052 H   0  0  0  0  0  0  0  0  0  0  0  0
    0.7307   -9.2249    0.6611 H   0  0  0  0  0  0  0  0  0  0  0  0
    1.3594   -8.2348    4.8093 H   0  0  0  0  0  0  0  0  0  0  0  0
    2.3898   -6.1051    4.1489 H   0  0  0  0  0  0  0  0  0  0  0  0
   -0.0713  -10.1370    4.1589 H   0  0  0  0  0  0  0  0  0  0  0  0
   -0.2864  -10.5819    2.4410 H   0  0  0  0  0  0  0  0  0  0  0  0
    3.1777  -13.1136    3.5602 H   0  0  0  0  0  0  0  0  0  0  0  0
    2.5594  -15.4027    4.3544 H   0  0  0  0  0  0  0  0  0  0  0  0
    0.1718  -15.8760    4.9293 H   0  0  0  0  0  0  0  0  0  0  0  0
   -1.4975  -14.0347    4.6777 H   0  0  0  0  0  0  0  0  0  0  0  0
  1  2  2  0  0  0  0
  1 28  1  0  0  0  0
  2  3  1  0  0  0  0
  2 29  1  0  0  0  0
  3  4  2  0  0  0  0
  3 30  1  0  0  0  0
  4  5  1  0  0  0  0
  5  6  2  0  0  0  0
  5  8  1  0  0  0  0
  6  1  1  0  0  0  0
  6  7  1  0  0  0  0
  7  9  2  0  0  0  0
  8 31  1  0  0  0  0
  8 32  1  0  0  0  0
  9 10  1  0  0  0  0
  9 33  1  0  0  0  0
 10 11  2  0  0  0  0
 10 13  1  0  0  0  0
 11 12  1  0  0  0  0
 12  7  1  0  0  0  0
 13 14  1  0  0  0  0
 13 34  1  0  0  0  0
 13 35  1  0  0  0  0
 14 15  2  0  0  0  0
 15 16  1  0  0  0  0
 15 36  1  0  0  0  0
 16 17  2  0  0  0  0
 16 37  1  0  0  0  0
 17 18  1  0  0  0  0
 17 20  1  0  0  0  0
 18 19  2  0  0  0  0
 18 38  1  0  0  0  0
 19 14  1  0  0  0  0
 19 39  1  0  0  0  0
 20 21  1  0  0  0  0
 20 40  1  0  0  0  0
 20 41  1  0  0  0  0
 21 22  1  0  0  0  0
 22 23  2  0  0  0  0
 23 24  1  0  0  0  0
 23 42  1  0  0  0  0
 24 25  2  0  0  0  0
 24 43  1  0  0  0  0
 25 26  1  0  0  0  0
 25 44  1  0  0  0  0
 26 27  2  0  0  0  0
 26 45  1  0  0  0  0
 27 22  1  0  0  0  0
M  END
>  <Mol_ID>
6635

>  <Formula>
C21H18N4O2

>  <MolWeight>
358.39322

>  <Cat>
S0491

>  <Name>
Manogepix (E1210)

>  <Synonyms>
MGX, APX001A

>  <Target>
Fungal

>  <Form>
Free base

>  <CAS>
936339-60-5

>  <URL>
http://www.selleckchem.com/products/e1210.html

$$$$
