MAP4K4-IN-3
 OpenBabel08302521353D

 33 35  0  0  0  0  0  0  0  0999 V2000
    2.3261   -0.0054    0.0830 N   0  0  0  0  0  0  0  0  0  0  0  0
   -7.3987    0.4569   -0.5377 N   0  0  0  0  0  0  0  0  0  0  0  0
    0.2122   -1.2700    0.1099 C   0  0  0  0  0  0  0  0  0  0  0  0
   -1.1945   -1.1352    0.0531 C   0  0  0  0  0  0  0  0  0  0  0  0
    0.9340   -0.0638    0.0578 C   0  0  0  0  0  0  0  0  0  0  0  0
   -1.8397    0.1090   -0.0436 C   0  0  0  0  0  0  0  0  0  0  0  0
    0.3546    1.1518   -0.0066 N   0  0  0  0  0  0  0  0  0  0  0  0
   -0.9956    1.2122   -0.0530 C   0  0  0  0  0  0  0  0  0  0  0  0
    0.8298   -2.6256    0.2016 C   0  0  0  0  0  0  0  0  0  0  0  0
    0.2384   -3.7466   -0.4176 C   0  0  0  0  0  0  0  0  0  0  0  0
    2.0178   -2.8618    0.9180 C   0  0  0  0  0  0  0  0  0  0  0  0
    0.8046   -5.0247   -0.3310 C   0  0  0  0  0  0  0  0  0  0  0  0
    2.6073   -4.1304    0.9779 C   0  0  0  0  0  0  0  0  0  0  0  0
    1.9974   -5.2129    0.3563 C   0  0  0  0  0  0  0  0  0  0  0  0
   -3.3042    0.2263   -0.1449 C   0  0  0  0  0  0  0  0  0  0  0  0
   -4.1869   -0.6686    0.4368 C   0  0  0  0  0  0  0  0  0  0  0  0
   -3.9528    1.2249   -0.8498 C   0  0  0  0  0  0  0  0  0  0  0  0
   -5.5322   -0.6129    0.3265 N   0  0  0  0  0  0  0  0  0  0  0  0
   -5.2949    1.3332   -0.9851 N   0  0  0  0  0  0  0  0  0  0  0  0
   -6.0285    0.3823   -0.4052 C   0  0  0  0  0  0  0  0  0  0  0  0
    2.5841    0.9711   -0.0339 H   0  0  0  0  0  0  0  0  0  0  0  0
    2.7332   -0.6010   -0.6307 H   0  0  0  0  0  0  0  0  0  0  0  0
   -7.6775    1.4140   -0.7091 H   0  0  0  0  0  0  0  0  0  0  0  0
   -7.8414   -0.0273    0.2303 H   0  0  0  0  0  0  0  0  0  0  0  0
   -1.8018   -2.0372    0.0788 H   0  0  0  0  0  0  0  0  0  0  0  0
   -1.3801    2.2266   -0.0936 H   0  0  0  0  0  0  0  0  0  0  0  0
   -0.6791   -3.6469   -0.9925 H   0  0  0  0  0  0  0  0  0  0  0  0
    2.5109   -2.0530    1.4556 H   0  0  0  0  0  0  0  0  0  0  0  0
    0.3129   -5.8687   -0.8073 H   0  0  0  0  0  0  0  0  0  0  0  0
    3.5403   -4.2665    1.5189 H   0  0  0  0  0  0  0  0  0  0  0  0
    2.4477   -6.2003    0.4116 H   0  0  0  0  0  0  0  0  0  0  0  0
   -3.8379   -1.4995    1.0441 H   0  0  0  0  0  0  0  0  0  0  0  0
   -3.4042    2.0037   -1.3745 H   0  0  0  0  0  0  0  0  0  0  0  0
  1  5  1  0  0  0  0
  1 21  1  0  0  0  0
  1 22  1  0  0  0  0
  2 20  1  0  0  0  0
  2 23  1  0  0  0  0
  2 24  1  0  0  0  0
  3  4  2  0  0  0  0
  3  5  1  0  0  0  0
  3  9  1  0  0  0  0
  4  6  1  0  0  0  0
  4 25  1  0  0  0  0
  5  7  2  0  0  0  0
  6  8  2  0  0  0  0
  6 15  1  0  0  0  0
  7  8  1  0  0  0  0
  8 26  1  0  0  0  0
  9 10  2  0  0  0  0
  9 11  1  0  0  0  0
 10 12  1  0  0  0  0
 10 27  1  0  0  0  0
 11 13  2  0  0  0  0
 11 28  1  0  0  0  0
 12 14  2  0  0  0  0
 12 29  1  0  0  0  0
 13 14  1  0  0  0  0
 13 30  1  0  0  0  0
 14 31  1  0  0  0  0
 15 16  2  0  0  0  0
 15 17  1  0  0  0  0
 16 18  1  0  0  0  0
 16 32  1  0  0  0  0
 17 19  2  0  0  0  0
 17 33  1  0  0  0  0
 18 20  2  0  0  0  0
 19 20  1  0  0  0  0
M  END
>  <Mol_ID>
6813

>  <Formula>
C15H12ClN5

>  <MolWeight>
297.74228

>  <Cat>
E0946

>  <Name>
MAP4K4-IN-3

>  <Target>
MAP4K

>  <Form>
Free base

>  <CAS>
1811510-58-3

>  <URL>
http://www.selleckchem.com/products/map4k4-in-3.html

$$$$
