MC180295
 OpenBabel08302521343D

 43 46  0  0  0  0  0  0  0  0999 V2000
    2.8129   -1.2732   -0.7937 N   0  0  0  0  0  0  0  0  0  0  0  0
    7.7848   -2.5997   -0.7805 C   0  0  0  0  0  0  0  0  0  0  0  0
    8.0366   -3.3563    0.1556 O   0  0  0  0  0  0  0  0  0  0  0  0
    6.5225   -1.6541   -3.5492 N   0  0  0  0  0  0  0  0  0  0  0  0
   10.2854   -4.0911   -1.3222 N   0  3  0  0  0  0  0  0  0  0  0  0
    9.5336   -4.8779   -1.9119 O   0  5  0  0  0  0  0  0  0  0  0  0
   11.2103   -4.4011   -0.5569 O   0  0  0  0  0  0  0  0  0  0  0  0
    1.8052   -1.1408   -1.8439 C   0  0  2  0  0  0  0  0  0  0  0  0
    0.4415   -0.7068   -1.2500 C   0  0  2  0  0  0  0  0  0  0  0  0
    1.4604   -2.5124   -2.4638 C   0  0  0  0  0  0  0  0  0  0  0  0
   -0.1206   -2.0293   -0.7218 C   0  0  0  0  0  0  0  0  0  0  0  0
   -0.5336   -0.4050   -2.4118 C   0  0  0  0  0  0  0  0  0  0  0  0
   -0.0177   -2.7220   -2.0787 C   0  0  1  0  0  0  0  0  0  0  0  0
   -0.8852   -1.8021   -2.9482 C   0  0  0  0  0  0  0  0  0  0  0  0
    4.0912   -1.5548   -1.1456 C   0  0  0  0  0  0  0  0  0  0  0  0
    5.1815   -2.2304    0.0035 S   0  0  0  0  0  0  0  0  0  0  0  0
    4.5977   -1.3757   -2.3419 N   0  0  0  0  0  0  0  0  0  0  0  0
    6.4414   -2.2129   -1.1719 C   0  0  0  0  0  0  0  0  0  0  0  0
    5.9066   -1.7695   -2.3651 C   0  0  0  0  0  0  0  0  0  0  0  0
    8.9625   -1.9943   -1.4697 C   0  0  0  0  0  0  0  0  0  0  0  0
   10.1614   -2.6900   -1.6702 C   0  0  0  0  0  0  0  0  0  0  0  0
    8.9176   -0.6463   -1.8632 C   0  0  0  0  0  0  0  0  0  0  0  0
   11.2695   -2.0884   -2.2902 C   0  0  0  0  0  0  0  0  0  0  0  0
   10.0076   -0.0456   -2.5002 C   0  0  0  0  0  0  0  0  0  0  0  0
   11.1812   -0.7644   -2.7154 C   0  0  0  0  0  0  0  0  0  0  0  0
    2.4949   -1.6910    0.0741 H   0  0  0  0  0  0  0  0  0  0  0  0
    5.9175   -1.4086   -4.3292 H   0  0  0  0  0  0  0  0  0  0  0  0
    7.2534   -2.3000   -3.8234 H   0  0  0  0  0  0  0  0  0  0  0  0
    2.1406   -0.4196   -2.5990 H   0  0  0  0  0  0  0  0  0  0  0  0
    0.5047    0.0997   -0.5155 H   0  0  0  0  0  0  0  0  0  0  0  0
    1.5922   -2.4926   -3.5517 H   0  0  0  0  0  0  0  0  0  0  0  0
    2.0817   -3.3206   -2.0641 H   0  0  0  0  0  0  0  0  0  0  0  0
    0.4927   -2.4977    0.0529 H   0  0  0  0  0  0  0  0  0  0  0  0
   -1.1509   -1.9413   -0.3594 H   0  0  0  0  0  0  0  0  0  0  0  0
   -1.4391    0.0937   -2.0486 H   0  0  0  0  0  0  0  0  0  0  0  0
   -0.0840    0.2256   -3.1855 H   0  0  0  0  0  0  0  0  0  0  0  0
   -0.3297   -3.7677   -2.0990 H   0  0  0  0  0  0  0  0  0  0  0  0
   -0.6763   -1.9053   -4.0173 H   0  0  0  0  0  0  0  0  0  0  0  0
   -1.9492   -2.0129   -2.7871 H   0  0  0  0  0  0  0  0  0  0  0  0
    8.0294   -0.0405   -1.6894 H   0  0  0  0  0  0  0  0  0  0  0  0
   12.1906   -2.6462   -2.4552 H   0  0  0  0  0  0  0  0  0  0  0  0
    9.9345    0.9905   -2.8251 H   0  0  0  0  0  0  0  0  0  0  0  0
   12.0253   -0.2895   -3.2117 H   0  0  0  0  0  0  0  0  0  0  0  0
  1 15  1  0  0  0  0
  1 26  1  0  0  0  0
  2  3  2  0  0  0  0
  2 18  1  0  0  0  0
  2 20  1  0  0  0  0
  4 19  1  0  0  0  0
  4 27  1  0  0  0  0
  4 28  1  0  0  0  0
  5  6  1  0  0  0  0
  5  7  2  0  0  0  0
  5 21  1  0  0  0  0
  8  9  1  0  0  0  0
  8 10  1  0  0  0  0
  8 29  1  6  0  0  0
  8  1  1  0  0  0  0
  9 11  1  0  0  0  0
  9 12  1  0  0  0  0
  9 30  1  1  0  0  0
 10 31  1  0  0  0  0
 10 32  1  0  0  0  0
 11 33  1  0  0  0  0
 11 34  1  0  0  0  0
 12 14  1  0  0  0  0
 12 35  1  0  0  0  0
 12 36  1  0  0  0  0
 13 10  1  0  0  0  0
 13 11  1  0  0  0  0
 13 14  1  0  0  0  0
 13 37  1  1  0  0  0
 14 38  1  0  0  0  0
 14 39  1  0  0  0  0
 15 16  1  0  0  0  0
 15 17  2  0  0  0  0
 16 18  1  0  0  0  0
 17 19  1  0  0  0  0
 18 19  2  0  0  0  0
 20 21  2  0  0  0  0
 20 22  1  0  0  0  0
 21 23  1  0  0  0  0
 22 24  2  0  0  0  0
 22 40  1  0  0  0  0
 23 25  2  0  0  0  0
 23 41  1  0  0  0  0
 24 25  1  0  0  0  0
 24 42  1  0  0  0  0
 25 43  1  0  0  0  0
M  CHG  2   5   1   6  -1
M  END
>  <Mol_ID>
6574

>  <Formula>
C17H18N4O3S

>  <MolWeight>
358.41482

>  <Cat>
S8809

>  <Name>
MC180295

>  <Synonyms>
(rel)-MC180295

>  <Target>
CDK

>  <Form>
free base

>  <CAS>
2237942-08-2

>  <URL>
http://www.selleckchem.com/products/mc180295.html

$$$$
