MCC-7840
 OpenBabel08302521353D

 51 54  0  0  0  0  0  0  0  0999 V2000
    0.8083   -0.2684   -0.1127 N   0  0  0  0  0  0  0  0  0  0  0  0
    0.2886   -0.6320    1.0996 C   0  0  0  0  0  0  0  0  0  0  0  0
    1.2494   -1.1466    1.9556 N   0  0  0  0  0  0  0  0  0  0  0  0
   -0.8891   -0.5737    1.4220 O   0  0  0  0  0  0  0  0  0  0  0  0
    0.9149   -1.5957    3.5226 S   0  0  0  0  0  0  0  0  0  0  0  0
    2.1258   -2.2137    4.0207 O   0  0  0  0  0  0  0  0  0  0  0  0
    0.3143   -0.4834    4.2254 O   0  0  0  0  0  0  0  0  0  0  0  0
   -1.4575   -6.0832    2.6694 C   0  0  0  0  0  0  0  0  0  0  0  0
   -1.5116   -6.0854    1.1427 C   0  0  0  0  0  0  0  0  0  0  0  0
   -0.4051   -7.0588    3.1950 C   0  0  0  0  0  0  0  0  0  0  0  0
    0.0821    0.3809   -1.1277 C   0  0  0  0  0  0  0  0  0  0  0  0
   -0.7110    1.5070   -0.9022 C   0  0  0  0  0  0  0  0  0  0  0  0
    0.2007   -0.0507   -2.4481 C   0  0  0  0  0  0  0  0  0  0  0  0
   -1.3213    2.1936   -1.9737 C   0  0  0  0  0  0  0  0  0  0  0  0
   -1.0468    2.1879    0.3923 C   0  0  0  0  0  0  0  0  0  0  0  0
   -0.4533    0.6193   -3.5030 C   0  0  0  0  0  0  0  0  0  0  0  0
    0.9221   -1.2552   -2.9802 C   0  0  0  0  0  0  0  0  0  0  0  0
   -1.2069    1.7601   -3.2859 C   0  0  0  0  0  0  0  0  0  0  0  0
   -2.0955    3.3835   -1.4969 C   0  0  0  0  0  0  0  0  0  0  0  0
   -1.5812    3.5502   -0.0643 C   0  0  0  0  0  0  0  0  0  0  0  0
   -0.2058   -0.0595   -4.8147 C   0  0  0  0  0  0  0  0  0  0  0  0
    0.2527   -1.4456   -4.3499 C   0  0  0  0  0  0  0  0  0  0  0  0
   -0.2778   -2.8817    3.5417 C   0  0  0  0  0  0  0  0  0  0  0  0
   -0.1480   -4.0330    2.8499 N   0  0  0  0  0  0  0  0  0  0  0  0
   -1.4787   -2.8512    4.2888 C   0  0  0  0  0  0  0  0  0  0  0  0
   -1.2467   -4.7368    3.1945 N   0  0  0  0  0  0  0  0  0  0  0  0
   -2.0762   -4.0655    4.0485 C   0  0  0  0  0  0  0  0  0  0  0  0
    1.6536   -0.7436   -0.3885 H   0  0  0  0  0  0  0  0  0  0  0  0
    2.2371   -1.1423    1.7462 H   0  0  0  0  0  0  0  0  0  0  0  0
   -2.4369   -6.4098    3.0424 H   0  0  0  0  0  0  0  0  0  0  0  0
   -0.5621   -5.7592    0.7041 H   0  0  0  0  0  0  0  0  0  0  0  0
   -1.7311   -7.0888    0.7631 H   0  0  0  0  0  0  0  0  0  0  0  0
   -2.2941   -5.4089    0.7816 H   0  0  0  0  0  0  0  0  0  0  0  0
   -0.4035   -7.0778    4.2906 H   0  0  0  0  0  0  0  0  0  0  0  0
   -0.6081   -8.0757    2.8421 H   0  0  0  0  0  0  0  0  0  0  0  0
    0.6027   -6.7824    2.8665 H   0  0  0  0  0  0  0  0  0  0  0  0
   -0.1736    2.3109    1.0399 H   0  0  0  0  0  0  0  0  0  0  0  0
   -1.8329    1.6381    0.9174 H   0  0  0  0  0  0  0  0  0  0  0  0
    1.9906   -1.0466   -3.0841 H   0  0  0  0  0  0  0  0  0  0  0  0
    0.7701   -2.1394   -2.3535 H   0  0  0  0  0  0  0  0  0  0  0  0
   -1.6976    2.2816   -4.1000 H   0  0  0  0  0  0  0  0  0  0  0  0
   -3.1685    3.1710   -1.5169 H   0  0  0  0  0  0  0  0  0  0  0  0
   -1.8804    4.2756   -2.0927 H   0  0  0  0  0  0  0  0  0  0  0  0
   -2.3597    3.9281    0.6074 H   0  0  0  0  0  0  0  0  0  0  0  0
   -0.7652    4.2845   -0.0497 H   0  0  0  0  0  0  0  0  0  0  0  0
   -1.1113   -0.1263   -5.4255 H   0  0  0  0  0  0  0  0  0  0  0  0
    0.5829    0.4586   -5.3688 H   0  0  0  0  0  0  0  0  0  0  0  0
    0.9135   -1.9312   -5.0748 H   0  0  0  0  0  0  0  0  0  0  0  0
   -0.6272   -2.0945   -4.2346 H   0  0  0  0  0  0  0  0  0  0  0  0
   -1.8451   -2.0512    4.9178 H   0  0  0  0  0  0  0  0  0  0  0  0
   -3.0001   -4.4971    4.4083 H   0  0  0  0  0  0  0  0  0  0  0  0
  1  2  1  0  0  0  0
  1 11  1  0  0  0  0
  1 28  1  0  0  0  0
  2  3  1  0  0  0  0
  2  4  2  0  0  0  0
  3  5  1  0  0  0  0
  3 29  1  0  0  0  0
  5  6  2  0  0  0  0
  5  7  2  0  0  0  0
  5 23  1  0  0  0  0
  8  9  1  0  0  0  0
  8 10  1  0  0  0  0
  8 26  1  0  0  0  0
  8 30  1  0  0  0  0
  9 31  1  0  0  0  0
  9 32  1  0  0  0  0
  9 33  1  0  0  0  0
 10 34  1  0  0  0  0
 10 35  1  0  0  0  0
 10 36  1  0  0  0  0
 11 12  2  0  0  0  0
 11 13  1  0  0  0  0
 12 14  1  0  0  0  0
 12 15  1  0  0  0  0
 13 16  2  0  0  0  0
 13 17  1  0  0  0  0
 14 18  2  0  0  0  0
 14 19  1  0  0  0  0
 15 20  1  0  0  0  0
 15 37  1  0  0  0  0
 15 38  1  0  0  0  0
 16 18  1  0  0  0  0
 16 21  1  0  0  0  0
 17 22  1  0  0  0  0
 17 39  1  0  0  0  0
 17 40  1  0  0  0  0
 18 41  1  0  0  0  0
 19 20  1  0  0  0  0
 19 42  1  0  0  0  0
 19 43  1  0  0  0  0
 20 44  1  0  0  0  0
 20 45  1  0  0  0  0
 21 22  1  0  0  0  0
 21 46  1  0  0  0  0
 21 47  1  0  0  0  0
 22 48  1  0  0  0  0
 22 49  1  0  0  0  0
 23 24  2  0  0  0  0
 23 25  1  0  0  0  0
 24 26  1  0  0  0  0
 25 27  2  0  0  0  0
 25 50  1  0  0  0  0
 26 27  1  0  0  0  0
 27 51  1  0  0  0  0
M  END
>  <Mol_ID>
6838

>  <Formula>
C19H24N4O3S

>  <MolWeight>
388.48386

>  <Cat>
E1213

>  <Name>
MCC-7840

>  <Synonyms>
Emlenoflast

>  <Target>
Others

>  <Form>
Free base

>  <CAS>
1995067-59-8

>  <URL>
http://www.selleckchem.com/products/mcc-7840.html

$$$$
