MDBN.cdx
 OpenBabel08302522053D

 21 22  0  0  0  0  0  0  0  0999 V2000
   -0.1992   -0.6770    0.0061 C   0  0  0  0  0  0  0  0  0  0  0  0
   -0.1679    0.6961    0.0155 C   0  0  0  0  0  0  0  0  0  0  0  0
    1.0206    1.3902    0.0055 C   0  0  0  0  0  0  0  0  0  0  0  0
    2.2092    0.6476   -0.0037 C   0  0  0  0  0  0  0  0  0  0  0  0
    2.1895   -0.7664    0.0019 C   0  0  0  0  0  0  0  0  0  0  0  0
    0.9545   -1.4340   -0.0117 C   0  0  0  0  0  0  0  0  0  0  0  0
   -1.4662   -1.1694    0.0138 O   0  0  0  0  0  0  0  0  0  0  0  0
   -2.2300    0.0529    0.0827 C   0  0  0  0  0  0  0  0  0  0  0  0
   -1.4129    1.2416    0.0315 O   0  0  0  0  0  0  0  0  0  0  0  0
    3.4689   -1.4937   -0.0260 C   0  0  0  0  0  0  0  0  0  0  0  0
    3.6281   -2.7048    0.5240 C   0  0  0  0  0  0  0  0  0  0  0  0
    4.9085   -3.3682    0.4611 N   0  3  0  0  0  0  0  0  0  0  0  0
    4.9596   -4.4851    0.9893 O   0  0  0  0  0  0  0  0  0  0  0  0
    5.8527   -2.8002   -0.1022 O   0  5  0  0  0  0  0  0  0  0  0  0
    1.0348    2.4743    0.0075 H   0  0  0  0  0  0  0  0  0  0  0  0
    3.1562    1.1848   -0.0059 H   0  0  0  0  0  0  0  0  0  0  0  0
    0.8751   -2.5148   -0.0422 H   0  0  0  0  0  0  0  0  0  0  0  0
   -2.9378    0.0728   -0.7537 H   0  0  0  0  0  0  0  0  0  0  0  0
   -2.7950    0.0575    1.0224 H   0  0  0  0  0  0  0  0  0  0  0  0
    4.2959   -0.9774   -0.5115 H   0  0  0  0  0  0  0  0  0  0  0  0
    2.9010   -3.3062    1.0461 H   0  0  0  0  0  0  0  0  0  0  0  0
  1  2  1  0  0  0  0
  1  7  1  0  0  0  0
  2  3  2  0  0  0  0
  3  4  1  0  0  0  0
  3 15  1  0  0  0  0
  4  5  2  0  0  0  0
  4 16  1  0  0  0  0
  5  6  1  0  0  0  0
  5 10  1  0  0  0  0
  6  1  2  0  0  0  0
  6 17  1  0  0  0  0
  7  8  1  0  0  0  0
  8  9  1  0  0  0  0
  8 18  1  0  0  0  0
  8 19  1  0  0  0  0
  9  2  1  0  0  0  0
 10 11  2  0  0  0  0
 10 20  1  0  0  0  0
 11 12  1  0  0  0  0
 11 21  1  0  0  0  0
 12 13  2  0  0  0  0
 12 14  1  0  0  0  0
M  CHG  2  12   1  14  -1
M  END
>  <Mol_ID>
1333

>  <Formula>
C9H7NO4

>  <MolWeight>
193.15618

>  <Cat>
S4921

>  <Name>
MNS (3,4-Methylenedioxy-¦Â-nitrostyrene)

>  <Synonyms>
MDBN

>  <Target>
p97,Src,Syk,Tyrosinase

>  <Form>
free base

>  <CAS>
1485-00-3

>  <URL>
http://selleckchem.com/products/mdbn.html

$$$$
