MDL-28170
 OpenBabel08302521253D

 54 55  0  0  0  0  0  0  0  0999 V2000
    1.5408    0.1232    0.7669 O   0  0  0  0  0  0  0  0  0  0  0  0
    2.1584    2.4001   -4.1642 O   0  0  0  0  0  0  0  0  0  0  0  0
    3.1421   -3.3661   -2.1701 O   0  0  0  0  0  0  0  0  0  0  0  0
    3.6305    3.4607   -2.7654 O   0  0  0  0  0  0  0  0  0  0  0  0
    2.3290   -1.0469   -1.0088 N   0  0  0  0  0  0  0  0  0  0  0  0
    2.5763    1.4972   -2.2061 N   0  0  0  0  0  0  0  0  0  0  0  0
    2.8677    2.6032    0.0523 C   0  0  0  0  0  0  0  0  0  0  0  0
    3.0065    1.3235   -0.8132 C   0  0  1  0  0  0  0  0  0  0  0  0
    2.2174    0.1051   -0.2573 C   0  0  0  0  0  0  0  0  0  0  0  0
    1.5812   -2.2574   -0.6699 C   0  0  3  0  0  0  0  0  0  0  0  0
    1.4516    3.1895    0.0729 C   0  0  0  0  0  0  0  0  0  0  0  0
    3.3830    2.4141    1.4839 C   0  0  0  0  0  0  0  0  0  0  0  0
    0.0576   -2.1413   -0.9047 C   0  0  0  0  0  0  0  0  0  0  0  0
   -0.3064   -1.7225   -2.3125 C   0  0  0  0  0  0  0  0  0  0  0  0
    2.1475   -3.4363   -1.4465 C   0  0  0  0  0  0  0  0  0  0  0  0
    2.8832    2.5366   -3.0285 C   0  0  0  0  0  0  0  0  0  0  0  0
   -0.5499   -2.6742   -3.3101 C   0  0  0  0  0  0  0  0  0  0  0  0
   -0.3339   -0.3624   -2.6525 C   0  0  0  0  0  0  0  0  0  0  0  0
   -0.7448   -2.2730   -4.6329 C   0  0  0  0  0  0  0  0  0  0  0  0
   -0.5024    0.0354   -3.9781 C   0  0  0  0  0  0  0  0  0  0  0  0
    2.1770    3.5056   -5.0792 C   0  0  0  0  0  0  0  0  0  0  0  0
   -0.6947   -0.9215   -4.9702 C   0  0  0  0  0  0  0  0  0  0  0  0
    2.4816    3.0442   -6.4859 C   0  0  0  0  0  0  0  0  0  0  0  0
    2.1788    1.7461   -6.9211 C   0  0  0  0  0  0  0  0  0  0  0  0
    3.0203    3.9539   -7.4092 C   0  0  0  0  0  0  0  0  0  0  0  0
    2.4308    1.3602   -8.2392 C   0  0  0  0  0  0  0  0  0  0  0  0
    3.2706    3.5675   -8.7276 C   0  0  0  0  0  0  0  0  0  0  0  0
    2.9767    2.2704   -9.1414 C   0  0  0  0  0  0  0  0  0  0  0  0
    3.0136   -1.1110   -1.7588 H   0  0  0  0  0  0  0  0  0  0  0  0
    1.9857    0.7928   -2.6296 H   0  0  0  0  0  0  0  0  0  0  0  0
    3.5183    3.3674   -0.3893 H   0  0  0  0  0  0  0  0  0  0  0  0
    4.0661    1.0349   -0.8503 H   0  0  0  0  0  0  0  0  0  0  0  0
    1.7569   -2.4713    0.3904 H   0  0  0  0  0  0  0  0  0  0  0  0
    0.7731    2.6003    0.6961 H   0  0  0  0  0  0  0  0  0  0  0  0
    1.4744    4.2061    0.4814 H   0  0  0  0  0  0  0  0  0  0  0  0
    1.0200    3.2544   -0.9301 H   0  0  0  0  0  0  0  0  0  0  0  0
    4.3648    1.9301    1.4895 H   0  0  0  0  0  0  0  0  0  0  0  0
    3.4871    3.3863    1.9787 H   0  0  0  0  0  0  0  0  0  0  0  0
    2.7023    1.8163    2.0968 H   0  0  0  0  0  0  0  0  0  0  0  0
   -0.4268   -3.1013   -0.6802 H   0  0  0  0  0  0  0  0  0  0  0  0
   -0.3768   -1.4207   -0.2015 H   0  0  0  0  0  0  0  0  0  0  0  0
    1.6405   -4.4023   -1.2808 H   0  0  0  0  0  0  0  0  0  0  0  0
   -0.5794   -3.7349   -3.0732 H   0  0  0  0  0  0  0  0  0  0  0  0
   -0.1963    0.3963   -1.8847 H   0  0  0  0  0  0  0  0  0  0  0  0
   -0.9225   -3.0171   -5.4050 H   0  0  0  0  0  0  0  0  0  0  0  0
   -0.4724    1.0909   -4.2366 H   0  0  0  0  0  0  0  0  0  0  0  0
    1.1709    3.9424   -5.0765 H   0  0  0  0  0  0  0  0  0  0  0  0
    2.8834    4.2878   -4.7809 H   0  0  0  0  0  0  0  0  0  0  0  0
   -0.8137   -0.6135   -6.0057 H   0  0  0  0  0  0  0  0  0  0  0  0
    1.7471    1.0214   -6.2348 H   0  0  0  0  0  0  0  0  0  0  0  0
    3.2511    4.9734   -7.1062 H   0  0  0  0  0  0  0  0  0  0  0  0
    2.1999    0.3480   -8.5607 H   0  0  0  0  0  0  0  0  0  0  0  0
    3.6936    4.2796   -9.4313 H   0  0  0  0  0  0  0  0  0  0  0  0
    3.1716    1.9693  -10.1673 H   0  0  0  0  0  0  0  0  0  0  0  0
  1  9  2  0  0  0  0
  2 16  1  0  0  0  0
  2 21  1  0  0  0  0
  3 15  2  0  0  0  0
  4 16  2  0  0  0  0
  5  9  1  0  0  0  0
  5 29  1  0  0  0  0
  6 16  1  0  0  0  0
  6 30  1  0  0  0  0
  7 11  1  0  0  0  0
  7 12  1  0  0  0  0
  7 31  1  0  0  0  0
  8  6  1  0  0  0  0
  8  7  1  0  0  0  0
  8  9  1  0  0  0  0
  8 32  1  6  0  0  0
 10  5  1  0  0  0  0
 10 13  1  0  0  0  0
 10 15  1  0  0  0  0
 10 33  1  0  0  0  0
 11 34  1  0  0  0  0
 11 35  1  0  0  0  0
 11 36  1  0  0  0  0
 12 37  1  0  0  0  0
 12 38  1  0  0  0  0
 12 39  1  0  0  0  0
 13 14  1  0  0  0  0
 13 40  1  0  0  0  0
 13 41  1  0  0  0  0
 14 17  2  0  0  0  0
 14 18  1  0  0  0  0
 15 42  1  0  0  0  0
 17 19  1  0  0  0  0
 17 43  1  0  0  0  0
 18 20  2  0  0  0  0
 18 44  1  0  0  0  0
 19 22  2  0  0  0  0
 19 45  1  0  0  0  0
 20 22  1  0  0  0  0
 20 46  1  0  0  0  0
 21 23  1  0  0  0  0
 21 47  1  0  0  0  0
 21 48  1  0  0  0  0
 22 49  1  0  0  0  0
 23 24  2  0  0  0  0
 23 25  1  0  0  0  0
 24 26  1  0  0  0  0
 24 50  1  0  0  0  0
 25 27  2  0  0  0  0
 25 51  1  0  0  0  0
 26 28  2  0  0  0  0
 26 52  1  0  0  0  0
 27 28  1  0  0  0  0
 27 53  1  0  0  0  0
 28 54  1  0  0  0  0
M  END
>  <Mol_ID>
5212

>  <Formula>
C22H26N2O4

>  <MolWeight>
382.45284

>  <Cat>
S7394

>  <Name>
MDL-28170

>  <Synonyms>
Calpain Inhibitor III

>  <Target>
Cysteine Protease

>  <Form>
free base

>  <CAS>
88191-84-8

>  <URL>
http://www.selleckchem.com/products/mdl-28170.html

$$$$
