Mebrofenin
 OpenBabel08302521313D

 42 42  0  0  0  0  0  0  0  0999 V2000
    1.6830   -0.6947    1.9702 Br  0  0  0  0  0  0  0  0  0  0  0  0
    7.6706    1.1309    0.2764 O   0  0  0  0  0  0  0  0  0  0  0  0
    8.5396    3.2303    3.0887 O   0  0  0  0  0  0  0  0  0  0  0  0
    6.4335    6.2688   -1.5240 O   0  0  0  0  0  0  0  0  0  0  0  0
    8.1354    5.3489    3.7441 O   0  0  0  0  0  0  0  0  0  0  0  0
    8.6361    6.7947   -1.5080 O   0  0  0  0  0  0  0  0  0  0  0  0
    6.8970    4.6043    0.6775 N   0  0  0  0  0  0  0  0  0  0  0  0
    5.6534    2.1652   -0.2380 N   0  0  0  0  0  0  0  0  0  0  0  0
    4.8674    0.9757   -0.2478 C   0  0  0  0  0  0  0  0  0  0  0  0
    7.7036    3.5236    0.0359 C   0  0  0  0  0  0  0  0  0  0  0  0
    3.8198    0.7933    0.6895 C   0  0  0  0  0  0  0  0  0  0  0  0
    5.0812   -0.0001   -1.2443 C   0  0  0  0  0  0  0  0  0  0  0  0
    7.0148    2.1379    0.0308 C   0  0  0  0  0  0  0  0  0  0  0  0
    3.3159   -1.4145   -0.2855 C   0  0  0  0  0  0  0  0  0  0  0  0
    3.0631   -0.4152    0.6684 C   0  0  0  0  0  0  0  0  0  0  0  0
    4.3192   -1.1829   -1.2342 C   0  0  0  0  0  0  0  0  0  0  0  0
    6.6285    4.3650    2.1276 C   0  0  0  0  0  0  0  0  0  0  0  0
    7.6234    5.9122    0.5286 C   0  0  0  0  0  0  0  0  0  0  0  0
    3.5108    1.8184    1.7552 C   0  0  0  0  0  0  0  0  0  0  0  0
    6.0395    0.1547   -2.3962 C   0  0  0  0  0  0  0  0  0  0  0  0
    2.6013   -2.7411   -0.3741 C   0  0  0  0  0  0  0  0  0  0  0  0
    7.8309    4.3792    3.0638 C   0  0  0  0  0  0  0  0  0  0  0  0
    7.6492    6.3712   -0.9311 C   0  0  0  0  0  0  0  0  0  0  0  0
    8.2063    2.4924    2.5392 H   0  0  0  0  0  0  0  0  0  0  0  0
    5.7892    5.8799   -0.8991 H   0  0  0  0  0  0  0  0  0  0  0  0
    5.2058    3.0190    0.0668 H   0  0  0  0  0  0  0  0  0  0  0  0
    8.6823    3.4243    0.5218 H   0  0  0  0  0  0  0  0  0  0  0  0
    7.8949    3.7620   -1.0175 H   0  0  0  0  0  0  0  0  0  0  0  0
    4.5032   -1.9360   -2.0021 H   0  0  0  0  0  0  0  0  0  0  0  0
    5.9415    5.1480    2.4780 H   0  0  0  0  0  0  0  0  0  0  0  0
    6.0880    3.4299    2.2870 H   0  0  0  0  0  0  0  0  0  0  0  0
    7.1000    6.7035    1.0800 H   0  0  0  0  0  0  0  0  0  0  0  0
    8.6536    5.8561    0.8982 H   0  0  0  0  0  0  0  0  0  0  0  0
    2.4844    2.1813    1.6383 H   0  0  0  0  0  0  0  0  0  0  0  0
    3.6467    1.3886    2.7540 H   0  0  0  0  0  0  0  0  0  0  0  0
    4.1484    2.6986    1.7125 H   0  0  0  0  0  0  0  0  0  0  0  0
    6.8898   -0.5226   -2.2764 H   0  0  0  0  0  0  0  0  0  0  0  0
    5.5240   -0.0954   -3.3330 H   0  0  0  0  0  0  0  0  0  0  0  0
    6.4057    1.1765   -2.5135 H   0  0  0  0  0  0  0  0  0  0  0  0
    2.2309   -2.9006   -1.3935 H   0  0  0  0  0  0  0  0  0  0  0  0
    3.2963   -3.5502   -0.1239 H   0  0  0  0  0  0  0  0  0  0  0  0
    1.7380   -2.8327    0.2864 H   0  0  0  0  0  0  0  0  0  0  0  0
  1 15  1  0  0  0  0
  2 13  2  0  0  0  0
  3 22  1  0  0  0  0
  3 24  1  0  0  0  0
  4 23  1  0  0  0  0
  4 25  1  0  0  0  0
  5 22  2  0  0  0  0
  6 23  2  0  0  0  0
  7 10  1  0  0  0  0
  7 17  1  0  0  0  0
  7 18  1  0  0  0  0
  8  9  1  0  0  0  0
  8 13  1  0  0  0  0
  8 26  1  0  0  0  0
  9 11  2  0  0  0  0
  9 12  1  0  0  0  0
 10 13  1  0  0  0  0
 10 27  1  0  0  0  0
 10 28  1  0  0  0  0
 11 15  1  0  0  0  0
 11 19  1  0  0  0  0
 12 16  2  0  0  0  0
 12 20  1  0  0  0  0
 14 15  2  0  0  0  0
 14 16  1  0  0  0  0
 14 21  1  0  0  0  0
 16 29  1  0  0  0  0
 17 22  1  0  0  0  0
 17 30  1  0  0  0  0
 17 31  1  0  0  0  0
 18 23  1  0  0  0  0
 18 32  1  0  0  0  0
 18 33  1  0  0  0  0
 19 34  1  0  0  0  0
 19 35  1  0  0  0  0
 19 36  1  0  0  0  0
 20 37  1  0  0  0  0
 20 38  1  0  0  0  0
 20 39  1  0  0  0  0
 21 40  1  0  0  0  0
 21 41  1  0  0  0  0
 21 42  1  0  0  0  0
M  END
>  <Mol_ID>
5771

>  <Formula>
C15H19BrN2O5

>  <MolWeight>
387.22576

>  <Cat>
S3587

>  <Name>
Mebrofenin

>  <Synonyms>
SQ 26962

>  <Target>
Others

>  <Form>
Free Base

>  <CAS>
78266-06-5

>  <URL>
http://www.selleckchem.com/products/mebrofenin.html

$$$$
