Meconine
 OpenBabel08302521363D

 24 25  0  0  0  0  0  0  0  0999 V2000
    0.9107    0.0130   -0.0118 O   0  0  0  0  0  0  0  0  0  0  0  0
    0.0651    1.1434   -0.0103 C   0  0  0  0  0  0  0  0  0  0  0  0
    1.6840    3.2765    0.0240 O   0  0  0  0  0  0  0  0  0  0  0  0
    2.4214   -2.4070   -0.0156 O   0  0  0  0  0  0  0  0  0  0  0  0
    1.0142   -2.5911   -0.0011 C   0  0  0  0  0  0  0  0  0  0  0  0
    3.0623    1.2639   -0.0255 C   0  0  0  0  0  0  0  0  0  0  0  0
    2.2670    0.1092   -0.0190 C   0  0  0  0  0  0  0  0  0  0  0  0
    4.4547    1.1787   -0.0440 C   0  0  0  0  0  0  0  0  0  0  0  0
    2.7568    2.7124   -0.0116 C   0  0  0  0  0  0  0  0  0  0  0  0
    2.9497   -1.1368   -0.0230 C   0  0  0  0  0  0  0  0  0  0  0  0
    5.1226   -0.0314   -0.0480 C   0  0  0  0  0  0  0  0  0  0  0  0
    5.0704    2.5186   -0.0608 C   0  0  0  0  0  0  0  0  0  0  0  0
    3.9444    3.3940   -0.0392 O   0  0  0  0  0  0  0  0  0  0  0  0
    4.3589   -1.1884   -0.0355 C   0  0  0  0  0  0  0  0  0  0  0  0
    0.1741    1.7075    0.9194 H   0  0  0  0  0  0  0  0  0  0  0  0
    0.2082    1.7418   -0.9130 H   0  0  0  0  0  0  0  0  0  0  0  0
   -0.9670    0.7792   -0.0373 H   0  0  0  0  0  0  0  0  0  0  0  0
    0.5692   -2.1840    0.9123 H   0  0  0  0  0  0  0  0  0  0  0  0
    0.5512   -2.1872   -0.9069 H   0  0  0  0  0  0  0  0  0  0  0  0
    0.8208   -3.6685    0.0028 H   0  0  0  0  0  0  0  0  0  0  0  0
    6.2070   -0.0851   -0.0605 H   0  0  0  0  0  0  0  0  0  0  0  0
    5.6433    2.6992   -0.9745 H   0  0  0  0  0  0  0  0  0  0  0  0
    5.6836    2.7058    0.8249 H   0  0  0  0  0  0  0  0  0  0  0  0
    4.8554   -2.1579   -0.0368 H   0  0  0  0  0  0  0  0  0  0  0  0
  1  2  1  0  0  0  0
  1  7  1  0  0  0  0
  2 15  1  0  0  0  0
  2 16  1  0  0  0  0
  2 17  1  0  0  0  0
  3  9  2  0  0  0  0
  4  5  1  0  0  0  0
  4 10  1  0  0  0  0
  5 18  1  0  0  0  0
  5 19  1  0  0  0  0
  5 20  1  0  0  0  0
  6  7  2  0  0  0  0
  6  8  1  0  0  0  0
  6  9  1  0  0  0  0
  7 10  1  0  0  0  0
  8 11  2  0  0  0  0
  8 12  1  0  0  0  0
  9 13  1  0  0  0  0
 10 14  2  0  0  0  0
 11 14  1  0  0  0  0
 11 21  1  0  0  0  0
 12 13  1  0  0  0  0
 12 22  1  0  0  0  0
 12 23  1  0  0  0  0
 14 24  1  0  0  0  0
M  END
>  <Mol_ID>
7221

>  <Formula>
C10H10O4

>  <MolWeight>
194.184

>  <Cat>
E4228

>  <Name>
Meconine

>  <Target>
Others

>  <Form>
Free base

>  <CAS>
569-31-3

>  <URL>
https://www.selleckchem.com/products/meconine.html

$$$$
