Medetomidine hcl.cdx
 OpenBabel08302519503D

 31 32  0  0  0  0  0  0  0  0999 V2000
    0.5763    0.6998    0.0394 C   0  0  0  0  0  0  0  0  0  0  0  0
    2.3162    1.6600    1.4591 C   0  0  0  0  0  0  0  0  0  0  0  0
    3.5458    1.1488    1.8315 N   0  0  0  0  0  0  0  0  0  0  0  0
    0.5927   -0.7217   -0.0542 C   0  0  0  0  0  0  0  0  0  0  0  0
    1.8521    1.5471    0.0323 C   0  0  3  0  0  0  0  0  0  0  0  0
    2.6403    2.1903    3.5605 N   0  0  0  0  0  0  0  0  0  0  0  0
    3.7082    1.4843    3.0900 C   0  0  0  0  0  0  0  0  0  0  0  0
    1.7457    2.3182    2.5344 C   0  0  0  0  0  0  0  0  0  0  0  0
   -0.6349   -1.4420   -0.0301 C   0  0  0  0  0  0  0  0  0  0  0  0
   -0.6760    1.3439    0.1273 C   0  0  0  0  0  0  0  0  0  0  0  0
    1.8769   -1.5155   -0.1437 C   0  0  0  0  0  0  0  0  0  0  0  0
    1.7318    2.9261   -0.6301 C   0  0  0  0  0  0  0  0  0  0  0  0
   -1.8741    0.6318    0.1124 C   0  0  0  0  0  0  0  0  0  0  0  0
   -1.8527   -0.7524    0.0371 C   0  0  0  0  0  0  0  0  0  0  0  0
   -0.6743   -2.9494   -0.0629 C   0  0  0  0  0  0  0  0  0  0  0  0
    2.6217    1.0356   -0.5526 H   0  0  0  0  0  0  0  0  0  0  0  0
    2.5464    2.5720    4.4913 H   0  0  0  0  0  0  0  0  0  0  0  0
    4.5715    1.2573    3.7023 H   0  0  0  0  0  0  0  0  0  0  0  0
    0.8207    2.8651    2.6433 H   0  0  0  0  0  0  0  0  0  0  0  0
   -0.7428    2.4248    0.2095 H   0  0  0  0  0  0  0  0  0  0  0  0
    2.0728   -2.0195    0.8076 H   0  0  0  0  0  0  0  0  0  0  0  0
    1.8030   -2.2656   -0.9390 H   0  0  0  0  0  0  0  0  0  0  0  0
    2.7545   -0.9209   -0.3942 H   0  0  0  0  0  0  0  0  0  0  0  0
    1.3529    2.8350   -1.6535 H   0  0  0  0  0  0  0  0  0  0  0  0
    1.0725    3.6062   -0.0803 H   0  0  0  0  0  0  0  0  0  0  0  0
    2.7139    3.4114   -0.6753 H   0  0  0  0  0  0  0  0  0  0  0  0
   -2.8219    1.1596    0.1650 H   0  0  0  0  0  0  0  0  0  0  0  0
   -2.7957   -1.2946    0.0382 H   0  0  0  0  0  0  0  0  0  0  0  0
   -0.2347   -3.3286   -0.9902 H   0  0  0  0  0  0  0  0  0  0  0  0
   -0.1380   -3.3614    0.7978 H   0  0  0  0  0  0  0  0  0  0  0  0
   -1.7023   -3.3262   -0.0136 H   0  0  0  0  0  0  0  0  0  0  0  0
  2  5  1  0  0  0  0
  3  2  1  0  0  0  0
  4  1  2  0  0  0  0
  5  1  1  0  0  0  0
  5 16  1  0  0  0  0
  6  8  1  0  0  0  0
  6  7  1  0  0  0  0
  6 17  1  0  0  0  0
  7  3  2  0  0  0  0
  7 18  1  0  0  0  0
  8  2  2  0  0  0  0
  8 19  1  0  0  0  0
  9  4  1  0  0  0  0
  9 14  2  0  0  0  0
 10  1  1  0  0  0  0
 10 20  1  0  0  0  0
 11  4  1  0  0  0  0
 11 21  1  0  0  0  0
 11 22  1  0  0  0  0
 11 23  1  0  0  0  0
 12  5  1  0  0  0  0
 12 24  1  0  0  0  0
 12 25  1  0  0  0  0
 12 26  1  0  0  0  0
 13 10  2  0  0  0  0
 13 27  1  0  0  0  0
 14 13  1  0  0  0  0
 14 28  1  0  0  0  0
 15  9  1  0  0  0  0
 15 29  1  0  0  0  0
 15 30  1  0  0  0  0
 15 31  1  0  0  0  0
M  END
>  <Mol_ID>
191

>  <Formula>
C13H17ClN2

>  <MolWeight>
236.74048

>  <Cat>
S3060

>  <Name>
Medetomidine HCl

>  <Synonyms>
N/A

>  <Target>
Adrenergic Receptor

>  <Form>
HCl

>  <CAS>
86347-15-1

>  <URL>
http://selleckchem.com/products/medetomidine-hcl.html

$$$$
