Medroxyprogesterone acetate.cdx
 OpenBabel08302521443D

 62 65  0  0  0  0  0  0  0  0999 V2000
    4.7037   -0.9522   -1.5816 C   0  0  0  0  0  0  0  0  0  0  0  0
    5.1249   -2.2970   -1.0438 C   0  0  0  0  0  0  0  0  0  0  0  0
    4.5482   -2.6323    0.2739 C   0  0  0  0  0  0  0  0  0  0  0  0
    3.2801   -2.2224    0.4722 C   0  0  0  0  0  0  0  0  0  0  0  0
    2.4161   -1.8346   -0.7482 C   0  0  2  0  0  0  0  0  0  0  0  0
    3.1847   -0.8290   -1.6534 C   0  0  0  0  0  0  0  0  0  0  0  0
    2.7473   -2.1283    1.9034 C   0  0  2  0  0  0  0  0  0  0  0  0
    1.2161   -2.0235    2.0855 C   0  0  0  0  0  0  0  0  0  0  0  0
    0.4446   -2.1478    0.7780 C   0  0  2  0  0  0  0  0  0  0  0  0
    1.0952   -1.1985   -0.2566 C   0  0  2  0  0  0  0  0  0  0  0  0
   -1.0043   -1.7485    0.8822 C   0  0  1  0  0  0  0  0  0  0  0  0
   -1.8132   -2.1234   -0.3938 C   0  0  2  0  0  0  0  0  0  0  0  0
   -1.1084   -1.5225   -1.6504 C   0  0  0  0  0  0  0  0  0  0  0  0
    0.1199   -0.6588   -1.3411 C   0  0  0  0  0  0  0  0  0  0  0  0
   -1.8746   -2.2288    2.0157 C   0  0  0  0  0  0  0  0  0  0  0  0
   -3.2336   -1.6556    1.5856 C   0  0  0  0  0  0  0  0  0  0  0  0
   -3.1860   -1.4722    0.0236 C   0  0  2  0  0  0  0  0  0  0  0  0
    5.9583   -3.0200   -1.5752 O   0  0  0  0  0  0  0  0  0  0  0  0
   -4.4120   -2.1559   -0.6295 C   0  0  0  0  0  0  0  0  0  0  0  0
   -4.9428   -3.1540   -0.1461 O   0  0  0  0  0  0  0  0  0  0  0  0
   -4.9412   -1.5956   -1.9193 C   0  0  0  0  0  0  0  0  0  0  0  0
    2.1224   -3.1302   -1.5681 C   0  0  0  0  0  0  0  0  0  0  0  0
   -1.9349   -3.6481   -0.6433 C   0  0  0  0  0  0  0  0  0  0  0  0
    3.4008   -0.9143    2.5934 C   0  0  0  0  0  0  0  0  0  0  0  0
   -2.9663   -0.0930   -0.3499 O   0  0  0  0  0  0  0  0  0  0  0  0
   -3.7761    0.9342   -0.0411 C   0  0  0  0  0  0  0  0  0  0  0  0
   -3.1717    2.1856   -0.6141 C   0  0  0  0  0  0  0  0  0  0  0  0
   -4.8219    0.8530    0.5758 O   0  0  0  0  0  0  0  0  0  0  0  0
    5.1657   -0.7614   -2.5543 H   0  0  0  0  0  0  0  0  0  0  0  0
    5.0956   -0.1986   -0.8851 H   0  0  0  0  0  0  0  0  0  0  0  0
    5.2149   -3.0066    1.0373 H   0  0  0  0  0  0  0  0  0  0  0  0
    2.8702   -0.9520   -2.6983 H   0  0  0  0  0  0  0  0  0  0  0  0
    2.9210    0.2048   -1.3946 H   0  0  0  0  0  0  0  0  0  0  0  0
    3.0703   -3.0254    2.4461 H   0  0  0  0  0  0  0  0  0  0  0  0
    0.8821   -2.7987    2.7874 H   0  0  0  0  0  0  0  0  0  0  0  0
    0.9523   -1.0704    2.5671 H   0  0  0  0  0  0  0  0  0  0  0  0
    0.5129   -3.1940    0.4664 H   0  0  0  0  0  0  0  0  0  0  0  0
    1.3888   -0.2838    0.2856 H   0  0  0  0  0  0  0  0  0  0  0  0
   -0.9917   -0.6512    1.0026 H   0  0  0  0  0  0  0  0  0  0  0  0
   -1.8091   -0.9352   -2.2555 H   0  0  0  0  0  0  0  0  0  0  0  0
   -0.7902   -2.3199   -2.3313 H   0  0  0  0  0  0  0  0  0  0  0  0
   -0.2567    0.3112   -0.9817 H   0  0  0  0  0  0  0  0  0  0  0  0
    0.6424   -0.4189   -2.2722 H   0  0  0  0  0  0  0  0  0  0  0  0
   -1.8969   -3.3205    2.0901 H   0  0  0  0  0  0  0  0  0  0  0  0
   -1.5630   -1.8361    2.9883 H   0  0  0  0  0  0  0  0  0  0  0  0
   -3.3768   -0.6927    2.0878 H   0  0  0  0  0  0  0  0  0  0  0  0
   -4.0279   -2.3228    1.9323 H   0  0  0  0  0  0  0  0  0  0  0  0
   -5.7078   -0.8496   -1.6998 H   0  0  0  0  0  0  0  0  0  0  0  0
   -5.3804   -2.4104   -2.5026 H   0  0  0  0  0  0  0  0  0  0  0  0
   -4.1382   -1.1547   -2.5113 H   0  0  0  0  0  0  0  0  0  0  0  0
    2.2811   -4.0426   -0.9807 H   0  0  0  0  0  0  0  0  0  0  0  0
    1.0924   -3.1749   -1.9241 H   0  0  0  0  0  0  0  0  0  0  0  0
    2.7529   -3.2089   -2.4608 H   0  0  0  0  0  0  0  0  0  0  0  0
   -2.4990   -3.8399   -1.5644 H   0  0  0  0  0  0  0  0  0  0  0  0
   -2.4401   -4.1813    0.1649 H   0  0  0  0  0  0  0  0  0  0  0  0
   -0.9558   -4.1175   -0.7845 H   0  0  0  0  0  0  0  0  0  0  0  0
    4.4925   -0.9372    2.5178 H   0  0  0  0  0  0  0  0  0  0  0  0
    3.1454   -0.8925    3.6584 H   0  0  0  0  0  0  0  0  0  0  0  0
    3.0602    0.0285    2.1466 H   0  0  0  0  0  0  0  0  0  0  0  0
   -3.0965    2.0909   -1.7023 H   0  0  0  0  0  0  0  0  0  0  0  0
   -2.1753    2.3485   -0.1901 H   0  0  0  0  0  0  0  0  0  0  0  0
   -3.7978    3.0488   -0.3789 H   0  0  0  0  0  0  0  0  0  0  0  0
  1  2  1  0  0  0  0
  1 29  1  0  0  0  0
  1 30  1  0  0  0  0
  2  3  1  0  0  0  0
  2 18  2  0  0  0  0
  3  4  2  0  0  0  0
  3 31  1  0  0  0  0
  4  5  1  0  0  0  0
  4  7  1  0  0  0  0
  5  6  1  0  0  0  0
  5 22  1  6  0  0  0
  6  1  1  0  0  0  0
  6 32  1  0  0  0  0
  6 33  1  0  0  0  0
  7  8  1  0  0  0  0
  7 24  1  0  0  0  0
  7 34  1  1  0  0  0
  8 35  1  0  0  0  0
  8 36  1  0  0  0  0
  9  8  1  0  0  0  0
  9 10  1  0  0  0  0
  9 11  1  0  0  0  0
  9 37  1  6  0  0  0
 10  5  1  0  0  0  0
 10 14  1  0  0  0  0
 10 38  1  1  0  0  0
 11 12  1  0  0  0  0
 11 15  1  0  0  0  0
 11 39  1  1  0  0  0
 12 13  1  0  0  0  0
 12 23  1  6  0  0  0
 13 14  1  0  0  0  0
 13 40  1  0  0  0  0
 13 41  1  0  0  0  0
 14 42  1  0  0  0  0
 14 43  1  0  0  0  0
 15 16  1  0  0  0  0
 15 44  1  0  0  0  0
 15 45  1  0  0  0  0
 16 17  1  0  0  0  0
 16 46  1  0  0  0  0
 16 47  1  0  0  0  0
 17 12  1  0  0  0  0
 17 19  1  6  0  0  0
 17 25  1  0  0  0  0
 19 20  2  0  0  0  0
 19 21  1  0  0  0  0
 21 48  1  0  0  0  0
 21 49  1  0  0  0  0
 21 50  1  0  0  0  0
 22 51  1  0  0  0  0
 22 52  1  0  0  0  0
 22 53  1  0  0  0  0
 23 54  1  0  0  0  0
 23 55  1  0  0  0  0
 23 56  1  0  0  0  0
 24 57  1  0  0  0  0
 24 58  1  0  0  0  0
 24 59  1  0  0  0  0
 25 26  1  0  0  0  0
 26 27  1  0  0  0  0
 26 28  2  0  0  0  0
 27 60  1  0  0  0  0
 27 61  1  0  0  0  0
 27 62  1  0  0  0  0
M  END
>  <Mol_ID>
885

>  <Formula>
C24H34O4

>  <MolWeight>
386.52436

>  <Cat>
S2567

>  <Name>
Medroxyprogesterone acetate (NSC-26386)

>  <Synonyms>
MPA, NSC-26386, Medroxyprogesterone 17-acetate, Farlutin

>  <Target>
Estrogen/progestogen Receptor

>  <Form>
Free Base

>  <CAS>
71-58-9

>  <URL>
http://selleckchem.com/products/Medroxyprogesterone-acetate.html

$$$$
