MEK162 (ARRY-438162).cdx
 OpenBabel08302519563D

 42 44  0  0  0  0  0  0  0  0999 V2000
    0.4236   -0.6174   -0.1108 C   0  0  0  0  0  0  0  0  0  0  0  0
    0.3553    0.7646    0.0653 C   0  0  0  0  0  0  0  0  0  0  0  0
   -0.8567    1.4362    0.2512 C   0  0  0  0  0  0  0  0  0  0  0  0
   -2.0342    0.6615    0.2665 C   0  0  0  0  0  0  0  0  0  0  0  0
   -2.0219   -0.7346    0.0400 C   0  0  0  0  0  0  0  0  0  0  0  0
   -0.7700   -1.3637   -0.1433 C   0  0  0  0  0  0  0  0  0  0  0  0
    1.7333   -1.0247   -0.2370 N   0  0  0  0  0  0  0  0  0  0  0  0
    2.4514    0.0703   -0.1476 C   0  0  0  0  0  0  0  0  0  0  0  0
    1.6642    1.1771    0.0013 N   0  0  0  0  0  0  0  0  0  0  0  0
    2.1626    2.5287    0.0436 C   0  0  0  0  0  0  0  0  0  0  0  0
   -0.7034   -2.6832   -0.3880 F   0  0  0  0  0  0  0  0  0  0  0  0
   -3.2470   -1.4623    0.0332 N   0  0  0  0  0  0  0  0  0  0  0  0
   -3.2848    1.3925    0.6309 C   0  0  0  0  0  0  0  0  0  0  0  0
   -4.1283    0.6812    1.4566 N   0  0  0  0  0  0  0  0  0  0  0  0
   -3.4663    2.5472    0.2681 O   0  0  0  0  0  0  0  0  0  0  0  0
   -5.3910    1.2623    1.6896 O   0  0  0  0  0  0  0  0  0  0  0  0
   -5.4533    1.6710    3.0632 C   0  0  0  0  0  0  0  0  0  0  0  0
   -4.5167    2.8433    3.3545 C   0  0  0  0  0  0  0  0  0  0  0  0
   -4.8052    3.9445    2.4985 O   0  0  0  0  0  0  0  0  0  0  0  0
   -3.4680   -2.8213    0.3349 C   0  0  0  0  0  0  0  0  0  0  0  0
   -2.8126   -3.4717    1.3942 C   0  0  0  0  0  0  0  0  0  0  0  0
   -2.9943   -4.8267    1.6471 C   0  0  0  0  0  0  0  0  0  0  0  0
   -3.8516   -5.5573    0.8330 C   0  0  0  0  0  0  0  0  0  0  0  0
   -4.5304   -4.9381   -0.2161 C   0  0  0  0  0  0  0  0  0  0  0  0
   -4.3387   -3.5743   -0.4634 C   0  0  0  0  0  0  0  0  0  0  0  0
   -2.0190   -2.7729    2.2218 F   0  0  0  0  0  0  0  0  0  0  0  0
   -4.1016   -7.4030    1.1524 Br  0  0  0  0  0  0  0  0  0  0  0  0
   -0.8960    2.5090    0.4199 H   0  0  0  0  0  0  0  0  0  0  0  0
    3.5322    0.1181   -0.1954 H   0  0  0  0  0  0  0  0  0  0  0  0
    2.7473    2.6537    0.9580 H   0  0  0  0  0  0  0  0  0  0  0  0
    2.7922    2.6897   -0.8361 H   0  0  0  0  0  0  0  0  0  0  0  0
    1.3330    3.2377    0.0290 H   0  0  0  0  0  0  0  0  0  0  0  0
   -3.9539   -1.0443   -0.5708 H   0  0  0  0  0  0  0  0  0  0  0  0
   -4.0624   -0.3311    1.5543 H   0  0  0  0  0  0  0  0  0  0  0  0
   -6.4888    1.9715    3.2488 H   0  0  0  0  0  0  0  0  0  0  0  0
   -5.2281    0.8151    3.7109 H   0  0  0  0  0  0  0  0  0  0  0  0
   -4.6318    3.1702    4.3913 H   0  0  0  0  0  0  0  0  0  0  0  0
   -3.4672    2.5700    3.2051 H   0  0  0  0  0  0  0  0  0  0  0  0
   -4.6215    3.6249    1.5869 H   0  0  0  0  0  0  0  0  0  0  0  0
   -2.4606   -5.2874    2.4718 H   0  0  0  0  0  0  0  0  0  0  0  0
   -5.2013   -5.5086   -0.8541 H   0  0  0  0  0  0  0  0  0  0  0  0
   -4.8604   -3.1152   -1.3001 H   0  0  0  0  0  0  0  0  0  0  0  0
  1  2  1  0  0  0  0
  1  7  1  0  0  0  0
  2  3  2  0  0  0  0
  3  4  1  0  0  0  0
  3 28  1  0  0  0  0
  4  5  2  0  0  0  0
  4 13  1  0  0  0  0
  5  6  1  0  0  0  0
  5 12  1  0  0  0  0
  6  1  2  0  0  0  0
  6 11  1  0  0  0  0
  7  8  2  0  0  0  0
  8  9  1  0  0  0  0
  8 29  1  0  0  0  0
  9  2  1  0  0  0  0
  9 10  1  0  0  0  0
 10 30  1  0  0  0  0
 10 31  1  0  0  0  0
 10 32  1  0  0  0  0
 12 20  1  0  0  0  0
 12 33  1  0  0  0  0
 13 14  1  0  0  0  0
 13 15  2  0  0  0  0
 14 16  1  0  0  0  0
 14 34  1  0  0  0  0
 16 17  1  0  0  0  0
 17 18  1  0  0  0  0
 17 35  1  0  0  0  0
 17 36  1  0  0  0  0
 18 19  1  0  0  0  0
 18 37  1  0  0  0  0
 18 38  1  0  0  0  0
 19 39  1  0  0  0  0
 20 21  2  0  0  0  0
 21 22  1  0  0  0  0
 21 26  1  0  0  0  0
 22 23  2  0  0  0  0
 22 40  1  0  0  0  0
 23 24  1  0  0  0  0
 23 27  1  0  0  0  0
 24 25  2  0  0  0  0
 24 41  1  0  0  0  0
 25 20  1  0  0  0  0
 25 42  1  0  0  0  0
M  END
>  <Mol_ID>
2244

>  <Formula>
C17H15BrF2N4O3

>  <MolWeight>
441.2268064

>  <Cat>
S7007

>  <Name>
Binimetinib (MEK162)

>  <Synonyms>
ARRY-162,ARRY-438162

>  <Target>
Apoptosis related,Autophagy,MEK

>  <Form>
free base

>  <CAS>
606143-89-9

>  <URL>
http://selleckchem.com/products/mek162.html

$$$$
