Melatonin.cdx
 OpenBabel08302522013D

 33 34  0  0  0  0  0  0  0  0999 V2000
    0.9520    1.4361   -0.0249 C   0  0  0  0  0  0  0  0  0  0  0  0
    2.1729    0.7526   -0.0011 C   0  0  0  0  0  0  0  0  0  0  0  0
    2.2183   -0.6407    0.0078 C   0  0  0  0  0  0  0  0  0  0  0  0
    1.0224   -1.3797    0.0050 C   0  0  0  0  0  0  0  0  0  0  0  0
   -0.2226   -0.7188   -0.0321 C   0  0  0  0  0  0  0  0  0  0  0  0
   -0.2199    0.6774   -0.0501 C   0  0  0  0  0  0  0  0  0  0  0  0
   -1.5960   -1.1465   -0.0626 C   0  0  0  0  0  0  0  0  0  0  0  0
   -2.3625    0.0038   -0.1221 C   0  0  0  0  0  0  0  0  0  0  0  0
   -1.5293    1.0864   -0.0956 N   0  0  0  0  0  0  0  0  0  0  0  0
    3.3599   -1.3989    0.0134 O   0  0  0  0  0  0  0  0  0  0  0  0
    4.5973   -0.6957   -0.0200 C   0  0  0  0  0  0  0  0  0  0  0  0
   -2.0976   -2.5626   -0.0202 C   0  0  0  0  0  0  0  0  0  0  0  0
   -3.4250   -2.7643   -0.7604 C   0  0  0  0  0  0  0  0  0  0  0  0
   -3.8829   -4.1425   -0.7326 N   0  0  0  0  0  0  0  0  0  0  0  0
   -4.7046   -4.7428    0.1730 C   0  0  0  0  0  0  0  0  0  0  0  0
   -4.9868   -5.9322    0.0442 O   0  0  0  0  0  0  0  0  0  0  0  0
   -5.2403   -3.9177    1.3121 C   0  0  0  0  0  0  0  0  0  0  0  0
    0.9260    2.5211   -0.0302 H   0  0  0  0  0  0  0  0  0  0  0  0
    3.0784    1.3513    0.0064 H   0  0  0  0  0  0  0  0  0  0  0  0
    1.0672   -2.4658    0.0206 H   0  0  0  0  0  0  0  0  0  0  0  0
   -3.4332    0.1485   -0.1764 H   0  0  0  0  0  0  0  0  0  0  0  0
   -1.8271    2.0527   -0.1156 H   0  0  0  0  0  0  0  0  0  0  0  0
    4.6807   -0.0759   -0.9194 H   0  0  0  0  0  0  0  0  0  0  0  0
    4.7309   -0.0963    0.8866 H   0  0  0  0  0  0  0  0  0  0  0  0
    5.4035   -1.4347   -0.0528 H   0  0  0  0  0  0  0  0  0  0  0  0
   -1.3452   -3.2327   -0.4548 H   0  0  0  0  0  0  0  0  0  0  0  0
   -2.2079   -2.8614    1.0300 H   0  0  0  0  0  0  0  0  0  0  0  0
   -4.2075   -2.1265   -0.3375 H   0  0  0  0  0  0  0  0  0  0  0  0
   -3.3138   -2.4927   -1.8147 H   0  0  0  0  0  0  0  0  0  0  0  0
   -3.5561   -4.7716   -1.4581 H   0  0  0  0  0  0  0  0  0  0  0  0
   -4.4178   -3.5566    1.9353 H   0  0  0  0  0  0  0  0  0  0  0  0
   -5.8299   -3.0799    0.9352 H   0  0  0  0  0  0  0  0  0  0  0  0
   -5.8934   -4.5416    1.9321 H   0  0  0  0  0  0  0  0  0  0  0  0
  1  2  2  0  0  0  0
  1 18  1  0  0  0  0
  2  3  1  0  0  0  0
  2 19  1  0  0  0  0
  3  4  2  0  0  0  0
  3 10  1  0  0  0  0
  4  5  1  0  0  0  0
  4 20  1  0  0  0  0
  5  6  2  0  0  0  0
  5  7  1  0  0  0  0
  6  1  1  0  0  0  0
  7  8  2  0  0  0  0
  7 12  1  0  0  0  0
  8  9  1  0  0  0  0
  8 21  1  0  0  0  0
  9  6  1  0  0  0  0
  9 22  1  0  0  0  0
 10 11  1  0  0  0  0
 11 23  1  0  0  0  0
 11 24  1  0  0  0  0
 11 25  1  0  0  0  0
 12 13  1  0  0  0  0
 12 26  1  0  0  0  0
 12 27  1  0  0  0  0
 13 14  1  0  0  0  0
 13 28  1  0  0  0  0
 13 29  1  0  0  0  0
 14 15  1  0  0  0  0
 14 30  1  0  0  0  0
 15 16  2  0  0  0  0
 15 17  1  0  0  0  0
 17 31  1  0  0  0  0
 17 32  1  0  0  0  0
 17 33  1  0  0  0  0
M  END
>  <Mol_ID>
1103

>  <Formula>
C13H16N2O2

>  <MolWeight>
232.27834

>  <Cat>
S1204

>  <Name>
Melatonin (NSC 113928)

>  <Synonyms>
NSC 56423, N-Acetyl-5-methoxytryptamine,NSC 113928,MT

>  <Target>
Apoptosis related,ATF/CREB & c-Fos/c-Jun,Autophagy,COX,Mitophagy,MT Receptor

>  <Form>
free base

>  <CAS>
73-31-4

>  <URL>
http://selleckchem.com/products/Melatonin.html

$$$$
