Menthol
 OpenBabel08302521353D

 31 31  0  0  0  0  0  0  0  0999 V2000
    0.9822   -0.1798   -0.1165 C   0  0  0  0  0  0  0  0  0  0  0  0
    0.3517   -1.5783   -0.1563 C   0  0  0  0  0  0  0  0  0  0  0  0
    2.4859   -0.3817    0.1494 C   0  0  0  0  0  0  0  0  0  0  0  0
   -2.0072    0.0599    0.6182 O   0  0  0  0  0  0  0  0  0  0  0  0
   -0.4749    4.0398   -1.8781 C   0  0  0  0  0  0  0  0  0  0  0  0
    0.3322    0.7842    0.9360 C   0  0  3  0  0  0  0  0  0  0  0  0
   -1.1444    1.1826    0.6736 C   0  0  3  0  0  0  0  0  0  0  0  0
    1.1089    2.1096    1.0988 C   0  0  0  0  0  0  0  0  0  0  0  0
   -1.3087    2.0559   -0.5752 C   0  0  0  0  0  0  0  0  0  0  0  0
    1.0272    2.9874   -0.1509 C   0  0  0  0  0  0  0  0  0  0  0  0
   -0.4251    3.3104   -0.5343 C   0  0  3  0  0  0  0  0  0  0  0  0
    0.8821    0.2519   -1.1189 H   0  0  0  0  0  0  0  0  0  0  0  0
    0.8876   -2.2203   -0.8653 H   0  0  0  0  0  0  0  0  0  0  0  0
    0.3916   -2.0611    0.8255 H   0  0  0  0  0  0  0  0  0  0  0  0
   -0.6832   -1.5641   -0.4980 H   0  0  0  0  0  0  0  0  0  0  0  0
    3.0550    0.5382   -0.0218 H   0  0  0  0  0  0  0  0  0  0  0  0
    2.6630   -0.7153    1.1772 H   0  0  0  0  0  0  0  0  0  0  0  0
    2.9086   -1.1347   -0.5261 H   0  0  0  0  0  0  0  0  0  0  0  0
   -2.1834   -0.1514   -0.3139 H   0  0  0  0  0  0  0  0  0  0  0  0
   -1.5047    4.3021   -2.1397 H   0  0  0  0  0  0  0  0  0  0  0  0
    0.1104    4.9637   -1.8418 H   0  0  0  0  0  0  0  0  0  0  0  0
   -0.0708    3.4151   -2.6832 H   0  0  0  0  0  0  0  0  0  0  0  0
    0.3597    0.2561    1.9000 H   0  0  0  0  0  0  0  0  0  0  0  0
   -1.4888    1.7674    1.5371 H   0  0  0  0  0  0  0  0  0  0  0  0
    0.6904    2.6665    1.9481 H   0  0  0  0  0  0  0  0  0  0  0  0
    2.1559    1.9312    1.3632 H   0  0  0  0  0  0  0  0  0  0  0  0
   -1.0960    1.4638   -1.4740 H   0  0  0  0  0  0  0  0  0  0  0  0
   -2.3610    2.3517   -0.6676 H   0  0  0  0  0  0  0  0  0  0  0  0
    1.5378    2.4945   -0.9859 H   0  0  0  0  0  0  0  0  0  0  0  0
    1.5695    3.9231    0.0330 H   0  0  0  0  0  0  0  0  0  0  0  0
   -0.8326    3.9849    0.2300 H   0  0  0  0  0  0  0  0  0  0  0  0
  1  2  1  0  0  0  0
  1  3  1  0  0  0  0
  1  6  1  0  0  0  0
  1 12  1  0  0  0  0
  2 13  1  0  0  0  0
  2 14  1  0  0  0  0
  2 15  1  0  0  0  0
  3 16  1  0  0  0  0
  3 17  1  0  0  0  0
  3 18  1  0  0  0  0
  4  7  1  0  0  0  0
  4 19  1  0  0  0  0
  5 11  1  0  0  0  0
  5 20  1  0  0  0  0
  5 21  1  0  0  0  0
  5 22  1  0  0  0  0
  6  7  1  0  0  0  0
  6  8  1  0  0  0  0
  6 23  1  0  0  0  0
  7  9  1  0  0  0  0
  7 24  1  0  0  0  0
  8 10  1  0  0  0  0
  8 25  1  0  0  0  0
  8 26  1  0  0  0  0
  9 11  1  0  0  0  0
  9 27  1  0  0  0  0
  9 28  1  0  0  0  0
 10 11  1  0  0  0  0
 10 29  1  0  0  0  0
 10 30  1  0  0  0  0
 11 31  1  0  0  0  0
M  END
>  <Mol_ID>
6996

>  <Formula>
C10H20O

>  <MolWeight>
156.2652

>  <Cat>
E4112

>  <Name>
Menthol

>  <Synonyms>
Menthyl alcohol

>  <Target>
Others

>  <Form>
free base

>  <CAS>
1490-04-6

>  <URL>
https://www.selleckchem.com/products/menthol.html

$$$$
