Meranzin
 OpenBabel08302521503D

 35 37  0  0  1  0  0  0  0  0999 V2000
    2.4935   -0.8442    1.0508 C   0  0  0  0  0  0  0  0  0  0  0  0
    4.4804   -0.3882    3.3781 O   0  0  0  0  0  0  0  0  0  0  0  0
    4.8217   -1.7148    3.0073 C   0  0  0  0  0  0  0  0  0  0  0  0
   -1.9996    0.9861    0.6311 O   0  0  0  0  0  0  0  0  0  0  0  0
    2.5595    2.4495   -1.0641 C   0  0  0  0  0  0  0  0  0  0  0  0
    4.3938    1.6346    0.5155 C   0  0  0  0  0  0  0  0  0  0  0  0
    2.2134   -0.1825    2.3850 C   0  0  0  0  0  0  0  0  0  0  0  0
    0.9439    0.4112    2.5974 C   0  0  0  0  0  0  0  0  0  0  0  0
    3.1545   -0.0503    3.4218 C   0  0  0  0  0  0  0  0  0  0  0  0
    0.6151    1.1372    3.7469 C   0  0  0  0  0  0  0  0  0  0  0  0
   -0.0211    0.3029    1.5617 O   0  0  0  0  0  0  0  0  0  0  0  0
    2.8147    0.6568    4.5925 C   0  0  0  0  0  0  0  0  0  0  0  0
    1.5603    1.2468    4.7586 C   0  0  0  0  0  0  0  0  0  0  0  0
   -0.6716    1.8108    3.8302 C   0  0  0  0  0  0  0  0  0  0  0  0
   -1.2204    0.9986    1.5765 C   0  0  0  0  0  0  0  0  0  0  0  0
   -1.5228    1.7560    2.7987 C   0  0  0  0  0  0  0  0  0  0  0  0
    2.3221    0.1019   -0.1020 C   0  0  1  0  0  0  0  0  0  0  0  0
    3.2050    1.3152   -0.3347 C   0  0  0  0  0  0  0  0  0  0  0  0
    3.3650    0.1001   -1.0866 O   0  0  0  0  0  0  0  0  0  0  0  0
    1.7933   -1.6826    0.9348 H   0  0  0  0  0  0  0  0  0  0  0  0
    3.4808   -1.2905    0.9924 H   0  0  0  0  0  0  0  0  0  0  0  0
    4.0117   -2.4357    3.1666 H   0  0  0  0  0  0  0  0  0  0  0  0
    5.1626   -1.7288    1.9659 H   0  0  0  0  0  0  0  0  0  0  0  0
    5.6812   -2.0267    3.6073 H   0  0  0  0  0  0  0  0  0  0  0  0
    2.0518    2.1092   -1.9729 H   0  0  0  0  0  0  0  0  0  0  0  0
    1.8118    2.9229   -0.4182 H   0  0  0  0  0  0  0  0  0  0  0  0
    3.2905    3.2103   -1.3547 H   0  0  0  0  0  0  0  0  0  0  0  0
    4.0870    1.9024    1.5323 H   0  0  0  0  0  0  0  0  0  0  0  0
    5.0923    0.7916    0.5753 H   0  0  0  0  0  0  0  0  0  0  0  0
    4.9491    2.4846    0.1117 H   0  0  0  0  0  0  0  0  0  0  0  0
    3.5654    0.7810    5.3723 H   0  0  0  0  0  0  0  0  0  0  0  0
    1.3526    1.8128    5.6647 H   0  0  0  0  0  0  0  0  0  0  0  0
   -0.9130    2.3832    4.7191 H   0  0  0  0  0  0  0  0  0  0  0  0
   -2.4748    2.2711    2.8123 H   0  0  0  0  0  0  0  0  0  0  0  0
    1.3112    0.1003   -0.4873 H   0  0  0  0  0  0  0  0  0  0  0  0
  1  7  1  0  0  0  0
  1 20  1  0  0  0  0
  1 21  1  0  0  0  0
  2  3  1  0  0  0  0
  2  9  1  0  0  0  0
  3 22  1  0  0  0  0
  3 23  1  0  0  0  0
  3 24  1  0  0  0  0
  4 15  2  0  0  0  0
  5 18  1  0  0  0  0
  5 25  1  0  0  0  0
  5 26  1  0  0  0  0
  5 27  1  0  0  0  0
  6 18  1  0  0  0  0
  6 28  1  0  0  0  0
  6 29  1  0  0  0  0
  6 30  1  0  0  0  0
  7  8  1  0  0  0  0
  7  9  2  0  0  0  0
  8 10  2  0  0  0  0
  8 11  1  0  0  0  0
  9 12  1  0  0  0  0
 10 13  1  0  0  0  0
 10 14  1  0  0  0  0
 11 15  1  0  0  0  0
 12 13  2  0  0  0  0
 12 31  1  0  0  0  0
 13 32  1  0  0  0  0
 14 16  2  0  0  0  0
 14 33  1  0  0  0  0
 15 16  1  0  0  0  0
 16 34  1  0  0  0  0
 17 18  1  0  0  0  0
 17 19  1  0  0  0  0
 17 35  1  6  0  0  0
 17  1  1  0  0  0  0
 18 19  1  0  0  0  0
M  END
>  <Mol_ID>
9927

>  <Formula>
C15H16O4

>  <MolWeight>
260.28514

>  <Cat>
E5125

>  <Name>
Meranzin

>  <Synonyms>
N/A

>  <Target>
Adrenergic Receptor, ERK

>  <Form>
free base

>  <CAS>
23971-42-8

>  <URL>
https://www.selleckchem.com/products/meranzin.html

$$$$
