Mericitabine
 OpenBabel08302521323D

 54 55  0  0  0  0  0  0  0  0999 V2000
    1.4543   -0.3753    0.3484 C   0  0  0  0  0  0  0  0  0  0  0  0
    3.5454    0.3135    0.9398 F   0  0  0  0  0  0  0  0  0  0  0  0
    0.4354    1.9119   -1.1414 O   0  0  0  0  0  0  0  0  0  0  0  0
    4.4168   -1.9987    0.2205 O   0  0  0  0  0  0  0  0  0  0  0  0
    5.6569   -1.4864    0.4560 C   0  0  0  0  0  0  0  0  0  0  0  0
    6.3724   -2.3445    1.4950 C   0  0  0  0  0  0  0  0  0  0  0  0
    6.1305   -0.4930   -0.0748 O   0  0  0  0  0  0  0  0  0  0  0  0
    7.8806   -2.3710    1.2539 C   0  0  0  0  0  0  0  0  0  0  0  0
    6.0630   -1.8479    2.9018 C   0  0  0  0  0  0  0  0  0  0  0  0
    2.9892   -1.4116   -3.1585 C   0  0  0  0  0  0  0  0  0  0  0  0
    3.2168   -0.7584   -4.4243 O   0  0  0  0  0  0  0  0  0  0  0  0
    3.9125   -1.4031   -5.4010 C   0  0  0  0  0  0  0  0  0  0  0  0
    3.8314   -0.5726   -6.6888 C   0  0  0  0  0  0  0  0  0  0  0  0
    4.5469   -2.4335   -5.2322 O   0  0  0  0  0  0  0  0  0  0  0  0
    4.3827   -1.2755   -7.9300 C   0  0  0  0  0  0  0  0  0  0  0  0
    2.3845   -0.1481   -6.9626 C   0  0  0  0  0  0  0  0  0  0  0  0
    0.3842    2.9921   -5.5902 N   0  0  0  0  0  0  0  0  0  0  0  0
    3.1872    1.0196   -1.2709 C   0  0  1  0  0  0  0  0  0  0  0  0
    2.8406   -0.0690   -0.1953 C   0  0  2  0  0  0  0  0  0  0  0  0
    4.2723    0.3879   -2.0174 O   0  0  0  0  0  0  0  0  0  0  0  0
    3.4875   -1.3781   -0.7078 C   0  0  1  0  0  0  0  0  0  0  0  0
    4.0374   -1.0267   -2.0822 C   0  0  1  0  0  0  0  0  0  0  0  0
    2.3593    1.6326   -2.3331 N   0  0  0  0  0  0  0  0  0  0  0  0
    1.0172    1.9719   -2.2174 C   0  0  0  0  0  0  0  0  0  0  0  0
    3.0825    2.2962   -3.3414 C   0  0  0  0  0  0  0  0  0  0  0  0
    0.3478    2.3230   -3.3832 N   0  0  0  0  0  0  0  0  0  0  0  0
    2.4896    2.9104   -4.3565 C   0  0  0  0  0  0  0  0  0  0  0  0
    1.0332    2.7371   -4.4061 C   0  0  0  0  0  0  0  0  0  0  0  0
    1.5711   -1.0556    1.2082 H   0  0  0  0  0  0  0  0  0  0  0  0
    0.9494    0.5015    0.7562 H   0  0  0  0  0  0  0  0  0  0  0  0
    0.8089   -0.8858   -0.3716 H   0  0  0  0  0  0  0  0  0  0  0  0
    6.0095   -3.3762    1.3901 H   0  0  0  0  0  0  0  0  0  0  0  0
    8.3224   -1.3732    1.3582 H   0  0  0  0  0  0  0  0  0  0  0  0
    8.3777   -3.0389    1.9703 H   0  0  0  0  0  0  0  0  0  0  0  0
    8.1072   -2.7285    0.2437 H   0  0  0  0  0  0  0  0  0  0  0  0
    4.9827   -1.8255    3.0839 H   0  0  0  0  0  0  0  0  0  0  0  0
    6.5186   -2.4988    3.6570 H   0  0  0  0  0  0  0  0  0  0  0  0
    6.4436   -0.8321    3.0557 H   0  0  0  0  0  0  0  0  0  0  0  0
    2.9250   -2.4946   -3.2757 H   0  0  0  0  0  0  0  0  0  0  0  0
    1.9913   -1.0766   -2.8535 H   0  0  0  0  0  0  0  0  0  0  0  0
    4.4309    0.3313   -6.5152 H   0  0  0  0  0  0  0  0  0  0  0  0
    4.3251   -2.3659   -7.8670 H   0  0  0  0  0  0  0  0  0  0  0  0
    3.8438   -0.9666   -8.8358 H   0  0  0  0  0  0  0  0  0  0  0  0
    5.4317   -1.0024   -8.0910 H   0  0  0  0  0  0  0  0  0  0  0  0
    1.9251    0.3403   -6.0996 H   0  0  0  0  0  0  0  0  0  0  0  0
    2.3459    0.5660   -7.7932 H   0  0  0  0  0  0  0  0  0  0  0  0
    1.7643   -1.0123   -7.2212 H   0  0  0  0  0  0  0  0  0  0  0  0
    0.9199    2.8078   -6.4368 H   0  0  0  0  0  0  0  0  0  0  0  0
   -0.5404    2.5876   -5.6255 H   0  0  0  0  0  0  0  0  0  0  0  0
    3.6179    1.8762   -0.7369 H   0  0  0  0  0  0  0  0  0  0  0  0
    2.7262   -2.1571   -0.8358 H   0  0  0  0  0  0  0  0  0  0  0  0
    4.9887   -1.5097   -2.3182 H   0  0  0  0  0  0  0  0  0  0  0  0
    4.1646    2.3174   -3.2518 H   0  0  0  0  0  0  0  0  0  0  0  0
    3.0188    3.4406   -5.1355 H   0  0  0  0  0  0  0  0  0  0  0  0
  1 29  1  0  0  0  0
  1 30  1  0  0  0  0
  1 31  1  0  0  0  0
  3 24  2  0  0  0  0
  4  5  1  0  0  0  0
  5  6  1  0  0  0  0
  5  7  2  0  0  0  0
  6  8  1  0  0  0  0
  6  9  1  0  0  0  0
  6 32  1  0  0  0  0
  8 33  1  0  0  0  0
  8 34  1  0  0  0  0
  8 35  1  0  0  0  0
  9 36  1  0  0  0  0
  9 37  1  0  0  0  0
  9 38  1  0  0  0  0
 10 11  1  0  0  0  0
 10 39  1  0  0  0  0
 10 40  1  0  0  0  0
 11 12  1  0  0  0  0
 12 13  1  0  0  0  0
 12 14  2  0  0  0  0
 13 15  1  0  0  0  0
 13 16  1  0  0  0  0
 13 41  1  0  0  0  0
 15 42  1  0  0  0  0
 15 43  1  0  0  0  0
 15 44  1  0  0  0  0
 16 45  1  0  0  0  0
 16 46  1  0  0  0  0
 16 47  1  0  0  0  0
 17 28  1  0  0  0  0
 17 48  1  0  0  0  0
 17 49  1  0  0  0  0
 18 19  1  0  0  0  0
 18 20  1  0  0  0  0
 18 23  1  0  0  0  0
 18 50  1  1  0  0  0
 19  1  1  0  0  0  0
 19  2  1  1  0  0  0
 19 21  1  0  0  0  0
 20 22  1  0  0  0  0
 21  4  1  0  0  0  0
 21 22  1  0  0  0  0
 21 51  1  6  0  0  0
 22 52  1  6  0  0  0
 22 10  1  0  0  0  0
 23 24  1  0  0  0  0
 23 25  1  0  0  0  0
 24 26  1  0  0  0  0
 25 27  2  0  0  0  0
 25 53  1  0  0  0  0
 26 28  2  0  0  0  0
 27 28  1  0  0  0  0
 27 54  1  0  0  0  0
M  END
>  <Mol_ID>
6119

>  <Formula>
C18H26FN3O6

>  <MolWeight>
399.4139432

>  <Cat>
E0097

>  <Name>
Mericitabine

>  <Synonyms>
RG 7128, R-7128, PSI 6130 diisobutyrate

>  <Target>
HCV Protease

>  <Form>
free base

>  <CAS>
940908-79-2

>  <URL>
http://www.selleckchem.com/products/mericitabine.html

$$$$
