Mesna.cdx
 OpenBabel08302521043D

 12 11  0  0  0  0  0  0  0  0999 V2000
   -1.3339   -1.0939   -0.9004 S   0  0  0  0  0  0  0  0  0  0  0  0
    0.4849   -1.2686   -0.9898 C   0  0  0  0  0  0  0  0  0  0  0  0
    0.9828   -0.9659   -2.3889 C   0  0  0  0  0  0  0  0  0  0  0  0
    2.7533   -1.0848   -2.4723 S   0  0  0  0  0  0  0  0  0  0  0  0
    3.0348   -0.7591   -3.8679 O   0  5  0  0  0  0  0  0  0  0  0  0
    3.2012   -0.0835   -1.5063 O   0  0  0  0  0  0  0  0  0  0  0  0
    3.0182   -2.4706   -2.0960 O   0  0  0  0  0  0  0  0  0  0  0  0
   -1.3786    0.1694   -1.3489 H   0  0  0  0  0  0  0  0  0  0  0  0
    0.9234   -0.5863   -0.2551 H   0  0  0  0  0  0  0  0  0  0  0  0
    0.7409   -2.2885   -0.6890 H   0  0  0  0  0  0  0  0  0  0  0  0
    0.5765   -1.6731   -3.1207 H   0  0  0  0  0  0  0  0  0  0  0  0
    0.7186    0.0515   -2.6980 H   0  0  0  0  0  0  0  0  0  0  0  0
  1  2  1  0  0  0  0
  1  8  1  0  0  0  0
  2  3  1  0  0  0  0
  2  9  1  0  0  0  0
  2 10  1  0  0  0  0
  3  4  1  0  0  0  0
  3 11  1  0  0  0  0
  3 12  1  0  0  0  0
  4  5  1  0  0  0  0
  4  6  2  0  0  0  0
  4  7  2  0  0  0  0
M  CHG  1   5  -1
M  END
>  <Mol_ID>
419

>  <Formula>
C2H5NaO3S2

>  <MolWeight>
164.17907

>  <Cat>
S1735

>  <Name>
Mesna

>  <Synonyms>
N/A

>  <Target>
Others

>  <Form>
Sodium Salt

>  <CAS>
19767-45-4

>  <URL>
http://selleckchem.com/products/Mesna(Uromitexan).html

$$$$
