mestranol.cdx
 OpenBabel08302521422D

 49 52  0  0  0  0  0  0  0  0999 V2000
    2.4165    2.1000    0.0000 C   0  0  0  0  0  0  0  0  0  0  0  0
    2.4165    0.7000    0.0000 C   0  0  0  0  0  0  0  0  0  0  0  0
    3.6289    0.0000    0.0000 C   0  0  0  0  0  0  0  0  0  0  0  0
    4.8413    0.7000    0.0000 C   0  0  0  0  0  0  0  0  0  0  0  0
    4.8413    2.1000    0.0000 C   0  0  0  0  0  0  0  0  0  0  0  0
    3.6289    2.8000    0.0000 C   0  0  0  0  0  0  0  0  0  0  0  0
    6.0538    0.0000    0.0000 C   0  0  0  0  0  0  0  0  0  0  0  0
    7.2662    0.7000    0.0000 C   0  0  0  0  0  0  0  0  0  0  0  0
    7.2662    2.1000    0.0000 C   0  0  2  0  0  0  0  0  0  0  0  0
    6.0538    2.8000    0.0000 C   0  0  2  0  0  0  0  0  0  0  0  0
    8.4786    2.8000    0.0000 C   0  0  1  0  0  0  0  0  0  0  0  0
    8.4786    4.2000    0.0000 C   0  0  2  0  0  0  0  0  0  0  0  0
    7.2662    4.9000    0.0000 C   0  0  0  0  0  0  0  0  0  0  0  0
    6.0538    4.2000    0.0000 C   0  0  0  0  0  0  0  0  0  0  0  0
    9.8101    2.3674    0.0000 C   0  0  0  0  0  0  0  0  0  0  0  0
   10.6330    3.5000    0.0000 C   0  0  0  0  0  0  0  0  0  0  0  0
    9.8101    4.6326    0.0000 C   0  0  1  0  0  0  0  0  0  0  0  0
    1.2082    0.0024    0.0000 O   0  0  0  0  0  0  0  0  0  0  0  0
    0.0000    0.7000    0.0000 C   0  0  0  0  0  0  0  0  0  0  0  0
   10.8001    5.6226    0.0000 C   0  0  0  0  0  0  0  0  0  0  0  0
   11.7869    6.6094    0.0000 C   0  0  0  0  0  0  0  0  0  0  0  0
    8.6245    5.5875    0.0000 C   0  0  0  0  0  0  0  0  0  0  0  0
    9.8101    6.0326    0.0000 O   0  0  0  0  0  0  0  0  0  0  0  0
    1.5228    2.6160    0.0000 H   0  0  0  0  0  0  0  0  0  0  0  0
    3.6289   -1.0320    0.0000 H   0  0  0  0  0  0  0  0  0  0  0  0
    3.6289    3.8320    0.0000 H   0  0  0  0  0  0  0  0  0  0  0  0
    6.0538   -1.0700    0.0000 H   0  0  0  0  0  0  0  0  0  0  0  0
    6.9805   -0.5350    0.0000 H   0  0  0  0  0  0  0  0  0  0  0  0
    8.1929    0.1650    0.0000 H   0  0  0  0  0  0  0  0  0  0  0  0
    8.1928    1.2350    0.0000 H   0  0  0  0  0  0  0  0  0  0  0  0
    6.3395    1.5650    0.0000 H   0  0  0  0  0  0  0  0  0  0  0  0
    6.9805    3.3350    0.0000 H   0  0  0  0  0  0  0  0  0  0  0  0
    8.5905    1.7359    0.0000 H   0  0  0  0  0  0  0  0  0  0  0  0
    7.2662    5.9700    0.0000 H   0  0  0  0  0  0  0  0  0  0  0  0
    6.3395    5.4350    0.0000 H   0  0  0  0  0  0  0  0  0  0  0  0
    5.1271    4.7350    0.0000 H   0  0  0  0  0  0  0  0  0  0  0  0
    6.0538    5.2700    0.0000 H   0  0  0  0  0  0  0  0  0  0  0  0
   10.1408    1.3498    0.0000 H   0  0  0  0  0  0  0  0  0  0  0  0
   10.8669    2.2000    0.0000 H   0  0  0  0  0  0  0  0  0  0  0  0
   11.7030    3.5000    0.0000 H   0  0  0  0  0  0  0  0  0  0  0  0
   11.1188    4.4534    0.0000 H   0  0  0  0  0  0  0  0  0  0  0  0
    0.0000    1.7700    0.0000 H   0  0  0  0  0  0  0  0  0  0  0  0
   -0.9267    0.1650    0.0000 H   0  0  0  0  0  0  0  0  0  0  0  0
   -0.9266    1.2350    0.0000 H   0  0  0  0  0  0  0  0  0  0  0  0
   12.4898    7.3123    0.0000 H   0  0  0  0  0  0  0  0  0  0  0  0
    9.6020    6.0227    0.0000 H   0  0  0  0  0  0  0  0  0  0  0  0
    7.7589    6.2165    0.0000 H   0  0  0  0  0  0  0  0  0  0  0  0
    8.7364    6.6516    0.0000 H   0  0  0  0  0  0  0  0  0  0  0  0
   10.6501    6.5176    0.0000 H   0  0  0  0  0  0  0  0  0  0  0  0
  1  2  2  0  0  0  0
  1 24  1  0  0  0  0
  2  3  1  0  0  0  0
  2 18  1  0  0  0  0
  3  4  2  0  0  0  0
  3 25  1  0  0  0  0
  4  5  1  0  0  0  0
  4  7  1  0  0  0  0
  5  6  2  0  0  0  0
  6  1  1  0  0  0  0
  6 26  1  0  0  0  0
  7  8  1  0  0  0  0
  7 27  1  0  0  0  0
  7 28  1  0  0  0  0
  8 29  1  0  0  0  0
  8 30  1  0  0  0  0
  9  8  1  0  0  0  0
  9 10  1  0  0  0  0
  9 11  1  0  0  0  0
  9 31  1  1  0  0  0
 10  5  1  0  0  0  0
 10 14  1  0  0  0  0
 10 32  1  6  0  0  0
 11 12  1  0  0  0  0
 11 15  1  0  0  0  0
 11 33  1  6  0  0  0
 12 13  1  0  0  0  0
 12 22  1  1  0  0  0
 13 14  1  0  0  0  0
 13 34  1  0  0  0  0
 13 35  1  0  0  0  0
 14 36  1  0  0  0  0
 14 37  1  0  0  0  0
 15 16  1  0  0  0  0
 15 38  1  0  0  0  0
 15 39  1  0  0  0  0
 16 17  1  0  0  0  0
 16 40  1  0  0  0  0
 16 41  1  0  0  0  0
 17 12  1  0  0  0  0
 17 20  1  6  0  0  0
 17 23  1  0  0  0  0
 18 19  1  0  0  0  0
 19 42  1  0  0  0  0
 19 43  1  0  0  0  0
 19 44  1  0  0  0  0
 20 21  3  0  0  0  0
 21 45  1  0  0  0  0
 22 46  1  0  0  0  0
 22 47  1  0  0  0  0
 22 48  1  0  0  0  0
 23 49  1  0  0  0  0
M  END
>  <Mol_ID>
603

>  <Formula>
C21H26O2

>  <MolWeight>
310.42994

>  <Cat>
S2125

>  <Name>
Mestranol

>  <Synonyms>
N/A

>  <Target>
Estrogen/progestogen Receptor

>  <Form>
free base

>  <CAS>
72-33-3

>  <URL>
http://selleckchem.com/products/Mestranol.html

$$$$
