Methylguanidine HCl
 OpenBabel08302520393D

 12 11  0  0  0  0  0  0  0  0999 V2000
    1.0497    0.0585    0.0200 C   0  0  0  0  0  0  0  0  0  0  0  0
    0.2770   -0.6546    0.8566 N   0  0  0  0  0  0  0  0  0  0  0  0
    0.3442    0.7644   -0.8832 N   0  0  0  0  0  0  0  0  0  0  0  0
    2.3313    0.1275   -0.0085 N   0  0  0  0  0  0  0  0  0  0  0  0
    0.6916   -1.6647    1.7969 C   0  0  0  0  0  0  0  0  0  0  0  0
   -0.7208   -0.6461    0.6699 H   0  0  0  0  0  0  0  0  0  0  0  0
    0.9053    1.4815   -1.3207 H   0  0  0  0  0  0  0  0  0  0  0  0
   -0.5933    1.0581   -0.6458 H   0  0  0  0  0  0  0  0  0  0  0  0
    2.7287   -0.4684    0.7126 H   0  0  0  0  0  0  0  0  0  0  0  0
    0.2936   -1.4251    2.7859 H   0  0  0  0  0  0  0  0  0  0  0  0
    0.2982   -2.6402    1.4965 H   0  0  0  0  0  0  0  0  0  0  0  0
    1.7803   -1.7561    1.8882 H   0  0  0  0  0  0  0  0  0  0  0  0
  1  2  1  0  0  0  0
  1  3  1  0  0  0  0
  1  4  2  0  0  0  0
  2  5  1  0  0  0  0
  2  6  1  0  0  0  0
  3  7  1  0  0  0  0
  3  8  1  0  0  0  0
  4  9  1  0  0  0  0
  5 10  1  0  0  0  0
  5 11  1  0  0  0  0
  5 12  1  0  0  0  0
M  END
>  <Mol_ID>
3652

>  <Formula>
C2H8ClN3

>  <MolWeight>
109.55802

>  <Cat>
S6309

>  <Name>
Methylguanidine HCl

>  <Synonyms>
N/A

>  <Target>
Others

>  <Form>
hydrochloride

>  <CAS>
21770-81-0

>  <URL>
http://www.selleck.cn/products/methylguanidine-hcl.html

$$$$
