Methyl L-pyroglutamate
 OpenBabel08302521363D

 19 19  0  0  1  0  0  0  0  0999 V2000
    1.0026    0.0390    0.0317 C   0  0  0  0  0  0  0  0  0  0  0  0
    0.4636   -1.1361   -0.4062 O   0  0  0  0  0  0  0  0  0  0  0  0
    0.3544    1.0074    0.4098 O   0  0  0  0  0  0  0  0  0  0  0  0
   -0.9641   -1.1615   -0.4319 C   0  0  0  0  0  0  0  0  0  0  0  0
    4.8118   -1.8641   -1.9263 O   0  0  0  0  0  0  0  0  0  0  0  0
    2.5324   -0.0029    0.0037 C   0  0  1  0  0  0  0  0  0  0  0  0
    3.0961   -1.2177   -0.5342 N   0  0  0  0  0  0  0  0  0  0  0  0
    3.1048    1.0737   -0.9089 C   0  0  0  0  0  0  0  0  0  0  0  0
    4.1651   -0.9971   -1.3678 C   0  0  0  0  0  0  0  0  0  0  0  0
    4.4184    0.4846   -1.4189 C   0  0  0  0  0  0  0  0  0  0  0  0
   -1.3733   -0.9578    0.5623 H   0  0  0  0  0  0  0  0  0  0  0  0
   -1.3436   -0.4433   -1.1648 H   0  0  0  0  0  0  0  0  0  0  0  0
   -1.2763   -2.1646   -0.7352 H   0  0  0  0  0  0  0  0  0  0  0  0
    2.9004    0.0894    1.0312 H   0  0  0  0  0  0  0  0  0  0  0  0
    2.7373   -2.1495   -0.3632 H   0  0  0  0  0  0  0  0  0  0  0  0
    3.2523    2.0266   -0.3909 H   0  0  0  0  0  0  0  0  0  0  0  0
    2.4348    1.2645   -1.7574 H   0  0  0  0  0  0  0  0  0  0  0  0
    5.2540    0.7269   -0.7553 H   0  0  0  0  0  0  0  0  0  0  0  0
    4.6357    0.8103   -2.4393 H   0  0  0  0  0  0  0  0  0  0  0  0
  1  2  1  0  0  0  0
  1  3  2  0  0  0  0
  2  4  1  0  0  0  0
  4 11  1  0  0  0  0
  4 12  1  0  0  0  0
  4 13  1  0  0  0  0
  5  9  2  0  0  0  0
  6  1  1  0  0  0  0
  6  7  1  0  0  0  0
  6  8  1  0  0  0  0
  6 14  1  1  0  0  0
  7  9  1  0  0  0  0
  7 15  1  0  0  0  0
  8 10  1  0  0  0  0
  8 16  1  0  0  0  0
  8 17  1  0  0  0  0
  9 10  1  0  0  0  0
 10 18  1  0  0  0  0
 10 19  1  0  0  0  0
M  END
>  <Mol_ID>
7321

>  <Formula>
C6H9NO3

>  <MolWeight>
143.14056

>  <Cat>
E4359

>  <Name>
Methyl L-pyroglutamate

>  <Synonyms>
Methyl L-pyroglutamate

>  <Target>
Others

>  <Form>
free base

>  <CAS>
4931-66-2

>  <URL>
https://www.selleckchem.com/products/methyl-l-pyroglutamate.html

$$$$
