Methyl 3-aminopyrazine-2-carboxylate
 OpenBabel08302521383D

 18 18  0  0  0  0  0  0  0  0999 V2000
   -0.1006   -1.2495    0.0287 C   0  0  0  0  0  0  0  0  0  0  0  0
   -0.9733   -0.1475    0.0689 C   0  0  0  0  0  0  0  0  0  0  0  0
    1.2595   -1.1074   -0.0335 N   0  0  0  0  0  0  0  0  0  0  0  0
   -0.6560   -2.6329   -0.0453 C   0  0  0  0  0  0  0  0  0  0  0  0
   -0.4910    1.1174    0.0413 N   0  0  0  0  0  0  0  0  0  0  0  0
   -2.3492   -0.2340    0.2522 N   0  0  0  0  0  0  0  0  0  0  0  0
    1.7089    0.1655   -0.0457 C   0  0  0  0  0  0  0  0  0  0  0  0
    0.3343   -3.5641    0.0279 O   0  0  0  0  0  0  0  0  0  0  0  0
   -1.8437   -2.8907   -0.2004 O   0  0  0  0  0  0  0  0  0  0  0  0
    0.8530    1.2514   -0.0177 C   0  0  0  0  0  0  0  0  0  0  0  0
   -0.1287   -4.9099   -0.0887 C   0  0  0  0  0  0  0  0  0  0  0  0
   -2.7742    0.6766    0.1126 H   0  0  0  0  0  0  0  0  0  0  0  0
   -2.7811   -0.9946   -0.2703 H   0  0  0  0  0  0  0  0  0  0  0  0
    2.7848    0.2929   -0.0820 H   0  0  0  0  0  0  0  0  0  0  0  0
    1.2271    2.2695   -0.0365 H   0  0  0  0  0  0  0  0  0  0  0  0
   -0.7902   -5.1582    0.7474 H   0  0  0  0  0  0  0  0  0  0  0  0
   -0.6421   -5.0613   -1.0442 H   0  0  0  0  0  0  0  0  0  0  0  0
    0.7381   -5.5751   -0.0551 H   0  0  0  0  0  0  0  0  0  0  0  0
  1  2  2  0  0  0  0
  1  3  1  0  0  0  0
  1  4  1  0  0  0  0
  2  5  1  0  0  0  0
  2  6  1  0  0  0  0
  3  7  2  0  0  0  0
  4  8  1  0  0  0  0
  4  9  2  0  0  0  0
  5 10  2  0  0  0  0
  6 12  1  0  0  0  0
  6 13  1  0  0  0  0
  7 10  1  0  0  0  0
  7 14  1  0  0  0  0
  8 11  1  0  0  0  0
 10 15  1  0  0  0  0
 11 16  1  0  0  0  0
 11 17  1  0  0  0  0
 11 18  1  0  0  0  0
M  END
>  <Mol_ID>
7916

>  <Formula>
C6H7N3O2

>  <MolWeight>
153.13868

>  <Cat>
S6230

>  <Name>
Methyl 3-aminopyrazine-2-carboxylate

>  <Synonyms>
N/A

>  <Target>
Others

>  <Form>
free base

>  <CAS>
16298-03-6

>  <URL>
http://www.selleck.cn/products/methyl-3-aminopyrazine-2-carboxylate.html

$$$$
