Methyl 3-indolyacetate
 OpenBabel08302520393D

 25 26  0  0  0  0  0  0  0  0999 V2000
   -0.2298   -0.7506    0.0037 C   0  0  0  0  0  0  0  0  0  0  0  0
   -1.5939   -1.1900    0.0146 C   0  0  0  0  0  0  0  0  0  0  0  0
   -0.2402    0.6446   -0.0162 C   0  0  0  0  0  0  0  0  0  0  0  0
    1.0151   -1.4132    0.0127 C   0  0  0  0  0  0  0  0  0  0  0  0
   -2.3797   -0.0540   -0.0324 C   0  0  0  0  0  0  0  0  0  0  0  0
   -2.0763   -2.6072    0.0592 C   0  0  0  0  0  0  0  0  0  0  0  0
   -1.5559    1.0407   -0.0279 N   0  0  0  0  0  0  0  0  0  0  0  0
    0.9308    1.4114   -0.0214 C   0  0  0  0  0  0  0  0  0  0  0  0
    2.1953   -0.6619   -0.0014 C   0  0  0  0  0  0  0  0  0  0  0  0
   -2.2577   -3.1625    1.4602 C   0  0  0  0  0  0  0  0  0  0  0  0
    2.1513    0.7305   -0.0162 C   0  0  0  0  0  0  0  0  0  0  0  0
   -2.6346   -2.2091    2.3561 O   0  0  0  0  0  0  0  0  0  0  0  0
   -2.1486   -4.3547    1.7265 O   0  0  0  0  0  0  0  0  0  0  0  0
   -2.8243   -2.6746    3.6925 C   0  0  0  0  0  0  0  0  0  0  0  0
    1.0649   -2.4980    0.0243 H   0  0  0  0  0  0  0  0  0  0  0  0
   -3.4546    0.0683   -0.0450 H   0  0  0  0  0  0  0  0  0  0  0  0
   -3.0324   -2.6982   -0.4695 H   0  0  0  0  0  0  0  0  0  0  0  0
   -1.3518   -3.2469   -0.4595 H   0  0  0  0  0  0  0  0  0  0  0  0
   -1.8648    2.0020   -0.0312 H   0  0  0  0  0  0  0  0  0  0  0  0
    0.9003    2.4964   -0.0318 H   0  0  0  0  0  0  0  0  0  0  0  0
    3.1554   -1.1718   -0.0004 H   0  0  0  0  0  0  0  0  0  0  0  0
    3.0800    1.2964   -0.0249 H   0  0  0  0  0  0  0  0  0  0  0  0
   -3.6355   -3.4092    3.7333 H   0  0  0  0  0  0  0  0  0  0  0  0
   -1.8958   -3.0966    4.0910 H   0  0  0  0  0  0  0  0  0  0  0  0
   -3.1050   -1.8171    4.3092 H   0  0  0  0  0  0  0  0  0  0  0  0
  1  2  1  0  0  0  0
  1  3  2  0  0  0  0
  1  4  1  0  0  0  0
  2  5  2  0  0  0  0
  2  6  1  0  0  0  0
  3  7  1  0  0  0  0
  3  8  1  0  0  0  0
  4  9  2  0  0  0  0
  4 15  1  0  0  0  0
  5  7  1  0  0  0  0
  5 16  1  0  0  0  0
  6 10  1  0  0  0  0
  6 17  1  0  0  0  0
  6 18  1  0  0  0  0
  7 19  1  0  0  0  0
  8 11  2  0  0  0  0
  8 20  1  0  0  0  0
  9 11  1  0  0  0  0
  9 21  1  0  0  0  0
 10 12  1  0  0  0  0
 10 13  2  0  0  0  0
 11 22  1  0  0  0  0
 12 14  1  0  0  0  0
 14 23  1  0  0  0  0
 14 24  1  0  0  0  0
 14 25  1  0  0  0  0
M  END
>  <Mol_ID>
3631

>  <Formula>
C11H11NO2

>  <MolWeight>
189.21054

>  <Cat>
S6280

>  <Name>
Methyl 3-indolyacetate

>  <Synonyms>
N/A

>  <Target>
Others

>  <Form>
free base

>  <CAS>
1912-33-0

>  <URL>
http://www.selleck.cn/products/methyl-3-indolyacetate.html

$$$$
