Methyl citrate
 OpenBabel08302521373D

 30 29  0  0  0  0  0  0  0  0999 V2000
    0.9954   -0.0416   -0.1194 C   0  0  0  0  0  0  0  0  0  0  0  0
    0.4540    0.9203   -1.1849 C   0  0  0  0  0  0  0  0  0  0  0  0
    0.4762   -1.4811   -0.3340 C   0  0  0  0  0  0  0  0  0  0  0  0
    0.4172    0.4110    1.2443 C   0  0  0  0  0  0  0  0  0  0  0  0
    2.4226   -0.0764   -0.1436 O   0  0  0  0  0  0  0  0  0  0  0  0
    1.0317    2.3066   -1.0609 C   0  0  0  0  0  0  0  0  0  0  0  0
    0.8617   -2.0438   -1.6798 C   0  0  0  0  0  0  0  0  0  0  0  0
    1.3820    0.8565    2.0935 O   0  0  0  0  0  0  0  0  0  0  0  0
   -0.7806    0.3809    1.5111 O   0  0  0  0  0  0  0  0  0  0  0  0
    0.2839    3.0696   -0.2183 O   0  0  0  0  0  0  0  0  0  0  0  0
    2.0134    2.6924   -1.6773 O   0  0  0  0  0  0  0  0  0  0  0  0
   -0.0574   -2.9553   -2.0972 O   0  0  0  0  0  0  0  0  0  0  0  0
    1.8690   -1.7219   -2.2959 O   0  0  0  0  0  0  0  0  0  0  0  0
    0.8902    1.3271    3.3494 C   0  0  0  0  0  0  0  0  0  0  0  0
    0.7292    4.4237   -0.1158 C   0  0  0  0  0  0  0  0  0  0  0  0
    0.2157   -3.5256   -3.3796 C   0  0  0  0  0  0  0  0  0  0  0  0
    0.7060    0.5857   -2.1973 H   0  0  0  0  0  0  0  0  0  0  0  0
   -0.6408    0.9889   -1.1542 H   0  0  0  0  0  0  0  0  0  0  0  0
    0.8892   -2.1564    0.4254 H   0  0  0  0  0  0  0  0  0  0  0  0
   -0.6177   -1.5031   -0.2522 H   0  0  0  0  0  0  0  0  0  0  0  0
    2.7133   -0.3367   -1.0429 H   0  0  0  0  0  0  0  0  0  0  0  0
    0.2278    2.1859    3.2009 H   0  0  0  0  0  0  0  0  0  0  0  0
    0.3707    0.5266    3.8871 H   0  0  0  0  0  0  0  0  0  0  0  0
    1.7434    1.6500    3.9528 H   0  0  0  0  0  0  0  0  0  0  0  0
    1.7496    4.4651    0.2778 H   0  0  0  0  0  0  0  0  0  0  0  0
    0.6689    4.9206   -1.0896 H   0  0  0  0  0  0  0  0  0  0  0  0
    0.0674    4.9480    0.5792 H   0  0  0  0  0  0  0  0  0  0  0  0
    0.1894   -2.7525   -4.1541 H   0  0  0  0  0  0  0  0  0  0  0  0
    1.1819   -4.0402   -3.3779 H   0  0  0  0  0  0  0  0  0  0  0  0
   -0.5660   -4.2593   -3.5981 H   0  0  0  0  0  0  0  0  0  0  0  0
  1  2  1  0  0  0  0
  1  3  1  0  0  0  0
  1  4  1  0  0  0  0
  1  5  1  0  0  0  0
  2  6  1  0  0  0  0
  2 17  1  0  0  0  0
  2 18  1  0  0  0  0
  3  7  1  0  0  0  0
  3 19  1  0  0  0  0
  3 20  1  0  0  0  0
  4  8  1  0  0  0  0
  4  9  2  0  0  0  0
  5 21  1  0  0  0  0
  6 10  1  0  0  0  0
  6 11  2  0  0  0  0
  7 12  1  0  0  0  0
  7 13  2  0  0  0  0
  8 14  1  0  0  0  0
 10 15  1  0  0  0  0
 12 16  1  0  0  0  0
 14 22  1  0  0  0  0
 14 23  1  0  0  0  0
 14 24  1  0  0  0  0
 15 25  1  0  0  0  0
 15 26  1  0  0  0  0
 15 27  1  0  0  0  0
 16 28  1  0  0  0  0
 16 29  1  0  0  0  0
 16 30  1  0  0  0  0
M  END
>  <Mol_ID>
7361

>  <Formula>
C9H14O7

>  <MolWeight>
234.20326

>  <Cat>
E4410

>  <Name>
Methyl citrate

>  <Target>
Others

>  <Form>
Free base

>  <CAS>
1587-20-8

>  <URL>
https://www.selleckchem.com/products/methyl-citrate.html

$$$$
