Methyl (E)-ferulate
 OpenBabel08302521363D

 27 27  0  0  0  0  0  0  0  0999 V2000
    1.0087   -0.0841   -0.0010 C   0  0  0  0  0  0  0  0  0  0  0  0
    0.4682    0.9975   -0.5843 C   0  0  0  0  0  0  0  0  0  0  0  0
    1.2211    2.2314   -0.9244 C   0  0  0  0  0  0  0  0  0  0  0  0
    2.5297    2.1217   -0.5638 O   0  0  0  0  0  0  0  0  0  0  0  0
    0.7017    3.1864   -1.4689 O   0  0  0  0  0  0  0  0  0  0  0  0
    3.3737    3.2509   -0.8374 C   0  0  0  0  0  0  0  0  0  0  0  0
    0.1773   -4.1235    2.7467 O   0  0  0  0  0  0  0  0  0  0  0  0
    1.2444   -3.7714    3.6193 C   0  0  0  0  0  0  0  0  0  0  0  0
   -1.8254   -4.8084    1.1254 O   0  0  0  0  0  0  0  0  0  0  0  0
    0.2553   -1.3084    0.2982 C   0  0  0  0  0  0  0  0  0  0  0  0
    0.6253   -2.0970    1.4035 C   0  0  0  0  0  0  0  0  0  0  0  0
   -0.7978   -1.7402   -0.5255 C   0  0  0  0  0  0  0  0  0  0  0  0
   -0.0680   -3.2742    1.6971 C   0  0  0  0  0  0  0  0  0  0  0  0
   -1.4937   -2.9120   -0.2391 C   0  0  0  0  0  0  0  0  0  0  0  0
   -1.1251   -3.6606    0.8664 C   0  0  0  0  0  0  0  0  0  0  0  0
    2.0588   -0.0873    0.2853 H   0  0  0  0  0  0  0  0  0  0  0  0
   -0.5835    1.0356   -0.8546 H   0  0  0  0  0  0  0  0  0  0  0  0
    3.4448    3.4447   -1.9118 H   0  0  0  0  0  0  0  0  0  0  0  0
    3.0313    4.1402   -0.3004 H   0  0  0  0  0  0  0  0  0  0  0  0
    4.3735    2.9998   -0.4725 H   0  0  0  0  0  0  0  0  0  0  0  0
    2.2025   -3.7794    3.0902 H   0  0  0  0  0  0  0  0  0  0  0  0
    1.0625   -2.8047    4.0991 H   0  0  0  0  0  0  0  0  0  0  0  0
    1.2923   -4.5294    4.4080 H   0  0  0  0  0  0  0  0  0  0  0  0
   -1.4076   -5.1824    1.9254 H   0  0  0  0  0  0  0  0  0  0  0  0
    1.4532   -1.7675    2.0237 H   0  0  0  0  0  0  0  0  0  0  0  0
   -1.0868   -1.1758   -1.4091 H   0  0  0  0  0  0  0  0  0  0  0  0
   -2.3125   -3.2367   -0.8742 H   0  0  0  0  0  0  0  0  0  0  0  0
  1  2  2  0  0  0  0
  1 10  1  0  0  0  0
  1 16  1  0  0  0  0
  2  3  1  0  0  0  0
  2 17  1  0  0  0  0
  3  4  1  0  0  0  0
  3  5  2  0  0  0  0
  4  6  1  0  0  0  0
  6 18  1  0  0  0  0
  6 19  1  0  0  0  0
  6 20  1  0  0  0  0
  7  8  1  0  0  0  0
  7 13  1  0  0  0  0
  8 21  1  0  0  0  0
  8 22  1  0  0  0  0
  8 23  1  0  0  0  0
  9 15  1  0  0  0  0
  9 24  1  0  0  0  0
 10 11  2  0  0  0  0
 10 12  1  0  0  0  0
 11 13  1  0  0  0  0
 11 25  1  0  0  0  0
 12 14  2  0  0  0  0
 12 26  1  0  0  0  0
 13 15  2  0  0  0  0
 14 15  1  0  0  0  0
 14 27  1  0  0  0  0
M  END
>  <Mol_ID>
7312

>  <Formula>
C11H12O4

>  <MolWeight>
208.21058

>  <Cat>
E4347

>  <Name>
Methyl (E)-ferulate

>  <Synonyms>
Methyl (E)-ferulate

>  <Target>
Antifection; COX; IL Receptor; JNK; p38 MAPK; TNF

>  <Form>
free base

>  <CAS>
22329-76-6

>  <URL>
https://www.selleckchem.com/products/methyl-e-ferulate.html

$$$$
