Methenamine Hippurate
 OpenBabel08302521223D

 44 46  0  0  0  0  0  0  0  0999 V2000
   -2.3446   -0.2323    0.2259 N   0  0  3  0  0  0  0  0  0  0  0  0
   -1.2508    0.4859    1.4378 C   0  0  0  0  0  0  0  0  0  0  0  0
   -1.9723    0.0669   -1.5854 C   0  0  0  0  0  0  0  0  0  0  0  0
   -2.1062   -1.7841    0.5039 C   0  0  0  0  0  0  0  0  0  0  0  0
    0.5525    0.4602    1.0444 N   0  0  3  0  0  0  0  0  0  0  0  0
   -0.2554   -0.2522   -2.2347 N   0  0  3  0  0  0  0  0  0  0  0  0
   -0.6130   -2.3669    0.1993 N   0  0  3  0  0  0  0  0  0  0  0  0
    0.9758    0.7894   -1.0604 C   0  0  0  0  0  0  0  0  0  0  0  0
    0.2782   -1.3991    1.4133 C   0  0  0  0  0  0  0  0  0  0  0  0
   -0.2186   -2.0300   -1.6027 C   0  0  0  0  0  0  0  0  0  0  0  0
    2.5995    0.4423    0.4134 C   0  0  0  0  0  0  0  0  0  0  0  0
    3.8722   -0.0254    0.8653 C   0  0  0  0  0  0  0  0  0  0  0  0
    1.6005   -0.8078   -0.1607 C   0  0  0  0  0  0  0  0  0  0  0  0
    2.0155    2.0725    0.6214 C   0  0  0  0  0  0  0  0  0  0  0  0
    4.3184   -1.1718    0.2486 N   0  0  0  0  0  0  0  0  0  0  0  0
    4.5670    0.6678    1.5947 O   0  0  0  0  0  0  0  0  0  0  0  0
   -0.1718   -0.2544   -0.3352 C   0  0  0  0  0  0  0  0  0  0  0  0
    0.4628    2.6218    0.2650 C   0  0  0  0  0  0  0  0  0  0  0  0
    5.6909   -1.5336    0.4327 C   0  0  0  0  0  0  0  0  0  0  0  0
   -0.6263    1.5924   -0.2723 C   0  0  0  0  0  0  0  0  0  0  0  0
    6.5589   -0.6267   -0.4331 C   0  0  0  0  0  0  0  0  0  0  0  0
    6.2521    0.6937   -0.4144 O   0  0  0  0  0  0  0  0  0  0  0  0
    7.5134   -1.0449   -1.0648 O   0  0  0  0  0  0  0  0  0  0  0  0
   -1.5010    1.5319    1.6819 H   0  0  0  0  0  0  0  0  0  0  0  0
   -1.3735    0.0011    2.4129 H   0  0  0  0  0  0  0  0  0  0  0  0
   -2.5993   -0.6445   -2.1265 H   0  0  0  0  0  0  0  0  0  0  0  0
   -2.2225    1.0884   -1.8961 H   0  0  0  0  0  0  0  0  0  0  0  0
   -2.2723   -1.9307    1.5788 H   0  0  0  0  0  0  0  0  0  0  0  0
   -2.8517   -2.3462   -0.0510 H   0  0  0  0  0  0  0  0  0  0  0  0
    1.9518    0.4515   -1.5596 H   0  0  0  0  0  0  0  0  0  0  0  0
    0.9846    1.8098   -1.5360 H   0  0  0  0  0  0  0  0  0  0  0  0
    1.2459   -1.8936    1.6460 H   0  0  0  0  0  0  0  0  0  0  0  0
   -0.2407   -1.4852    2.3765 H   0  0  0  0  0  0  0  0  0  0  0  0
   -1.0568   -2.4739   -2.1586 H   0  0  0  0  0  0  0  0  0  0  0  0
    0.7446   -2.4671   -1.8857 H   0  0  0  0  0  0  0  0  0  0  0  0
    1.9403   -1.8516   -0.2518 H   0  0  0  0  0  0  0  0  0  0  0  0
    2.5673    2.7672    1.2548 H   0  0  0  0  0  0  0  0  0  0  0  0
    3.8724   -1.5282   -0.5937 H   0  0  0  0  0  0  0  0  0  0  0  0
   -0.9168   -0.8650   -0.5694 H   0  0  0  0  0  0  0  0  0  0  0  0
    0.0612    3.6075    0.4782 H   0  0  0  0  0  0  0  0  0  0  0  0
    5.9328   -1.4293    1.4914 H   0  0  0  0  0  0  0  0  0  0  0  0
    5.7956   -2.5781    0.1210 H   0  0  0  0  0  0  0  0  0  0  0  0
   -1.6432    1.9559   -0.3541 H   0  0  0  0  0  0  0  0  0  0  0  0
    5.6316    0.9412    0.3124 H   0  0  0  0  0  0  0  0  0  0  0  0
  1  2  1  0  0  0  0
  1  3  1  0  0  0  0
  1  4  1  0  0  0  0
  2  5  1  0  0  0  0
  2 24  1  0  0  0  0
  2 25  1  0  0  0  0
  3  6  1  0  0  0  0
  3 26  1  0  0  0  0
  3 27  1  0  0  0  0
  4  7  1  0  0  0  0
  4 28  1  0  0  0  0
  4 29  1  0  0  0  0
  5  8  1  0  0  0  0
  5  9  1  0  0  0  0
  6 10  1  0  0  0  0
  6  8  1  0  0  0  0
  7 10  1  0  0  0  0
  7  9  1  0  0  0  0
  8 30  1  0  0  0  0
  8 31  1  0  0  0  0
  9 32  1  0  0  0  0
  9 33  1  0  0  0  0
 10 34  1  0  0  0  0
 10 35  1  0  0  0  0
 11 12  1  0  0  0  0
 11 13  2  0  0  0  0
 11 14  1  0  0  0  0
 12 15  1  0  0  0  0
 12 16  2  0  0  0  0
 13 17  1  0  0  0  0
 13 36  1  0  0  0  0
 14 18  2  0  0  0  0
 14 37  1  0  0  0  0
 15 19  1  0  0  0  0
 15 38  1  0  0  0  0
 17 20  2  0  0  0  0
 17 39  1  0  0  0  0
 18 20  1  0  0  0  0
 18 40  1  0  0  0  0
 19 21  1  0  0  0  0
 19 41  1  0  0  0  0
 19 42  1  0  0  0  0
 20 43  1  0  0  0  0
 21 22  1  0  0  0  0
 21 23  2  0  0  0  0
 22 44  1  0  0  0  0
M  END
>  <Mol_ID>
4624

>  <Formula>
C15H21N5O3

>  <MolWeight>
319.35894

>  <Cat>
S9466

>  <Name>
Methenamine Hippurate

>  <Synonyms>
N/A

>  <Target>
Bacterial

>  <Form>
Hippurate

>  <CAS>
5714-73-8

>  <URL>
https://www.selleckchem.com/products/methenamine-hippurate.html

$$$$
