Methyl isovanillate
 OpenBabel08302521363D

 23 23  0  0  0  0  0  0  0  0999 V2000
    1.0924   -0.1046   -0.0823 C   0  0  0  0  0  0  0  0  0  0  0  0
    0.5480    1.1379   -0.0977 O   0  0  0  0  0  0  0  0  0  0  0  0
    0.4648   -1.1531   -0.0748 O   0  0  0  0  0  0  0  0  0  0  0  0
   -0.8833    1.1234   -0.1013 C   0  0  0  0  0  0  0  0  0  0  0  0
    5.2519   -2.5732   -0.0632 O   0  0  0  0  0  0  0  0  0  0  0  0
    6.7658   -0.0205   -0.0486 O   0  0  0  0  0  0  0  0  0  0  0  0
    7.5667   -1.1948   -0.0300 C   0  0  0  0  0  0  0  0  0  0  0  0
    2.5803   -0.0637   -0.0761 C   0  0  0  0  0  0  0  0  0  0  0  0
    3.2564   -1.2924   -0.0724 C   0  0  0  0  0  0  0  0  0  0  0  0
    3.3210    1.1203   -0.0724 C   0  0  0  0  0  0  0  0  0  0  0  0
    4.6547   -1.3428   -0.0641 C   0  0  0  0  0  0  0  0  0  0  0  0
    4.7203    1.0633   -0.0630 C   0  0  0  0  0  0  0  0  0  0  0  0
    5.4048   -0.1628   -0.0579 C   0  0  0  0  0  0  0  0  0  0  0  0
   -1.2604    0.6225   -0.9994 H   0  0  0  0  0  0  0  0  0  0  0  0
   -1.2649    0.6318    0.8001 H   0  0  0  0  0  0  0  0  0  0  0  0
   -1.2407    2.1568   -0.1073 H   0  0  0  0  0  0  0  0  0  0  0  0
    4.5688   -3.2641   -0.0711 H   0  0  0  0  0  0  0  0  0  0  0  0
    7.3905   -1.7847    0.8751 H   0  0  0  0  0  0  0  0  0  0  0  0
    7.4274   -1.7863   -0.9406 H   0  0  0  0  0  0  0  0  0  0  0  0
    8.6153   -0.8806   -0.0082 H   0  0  0  0  0  0  0  0  0  0  0  0
    2.6759   -2.2123   -0.0762 H   0  0  0  0  0  0  0  0  0  0  0  0
    2.8314    2.0916   -0.0757 H   0  0  0  0  0  0  0  0  0  0  0  0
    5.2924    1.9896   -0.0596 H   0  0  0  0  0  0  0  0  0  0  0  0
  1  2  1  0  0  0  0
  1  3  2  0  0  0  0
  1  8  1  0  0  0  0
  2  4  1  0  0  0  0
  4 14  1  0  0  0  0
  4 15  1  0  0  0  0
  4 16  1  0  0  0  0
  5 11  1  0  0  0  0
  5 17  1  0  0  0  0
  6  7  1  0  0  0  0
  6 13  1  0  0  0  0
  7 18  1  0  0  0  0
  7 19  1  0  0  0  0
  7 20  1  0  0  0  0
  8  9  2  0  0  0  0
  8 10  1  0  0  0  0
  9 11  1  0  0  0  0
  9 21  1  0  0  0  0
 10 12  2  0  0  0  0
 10 22  1  0  0  0  0
 11 13  2  0  0  0  0
 12 13  1  0  0  0  0
 12 23  1  0  0  0  0
M  END
>  <Mol_ID>
7141

>  <Formula>
C9H10O4

>  <MolWeight>
182.1733

>  <Cat>
E4126

>  <Name>
Methyl isovanillate

>  <Synonyms>
Methyl 3-hydroxy-4-methoxybenzoate

>  <Target>
Others

>  <Form>
Free base

>  <CAS>
6702-50-7

>  <URL>
https://www.selleckchem.com/products/methyl-isovanillate.html

$$$$
