Methyl DL-mandelate
 OpenBabel08302521373D

 22 22  0  0  0  0  0  0  0  0999 V2000
    1.0802   -0.0965   -0.1112 C   0  0  3  0  0  0  0  0  0  0  0  0
    0.5234   -1.4931   -0.4464 C   0  0  0  0  0  0  0  0  0  0  0  0
    0.8457    0.2810    1.2463 O   0  0  0  0  0  0  0  0  0  0  0  0
    0.3248   -1.6635   -1.7828 O   0  0  0  0  0  0  0  0  0  0  0  0
    0.3747   -2.3745    0.3978 O   0  0  0  0  0  0  0  0  0  0  0  0
   -0.1543   -2.9510   -2.1750 C   0  0  0  0  0  0  0  0  0  0  0  0
    0.5878    1.0110   -1.0207 C   0  0  0  0  0  0  0  0  0  0  0  0
   -0.6525    1.6357   -0.8182 C   0  0  0  0  0  0  0  0  0  0  0  0
    1.3755    1.4148   -2.1112 C   0  0  0  0  0  0  0  0  0  0  0  0
   -1.0839    2.6494   -1.6770 C   0  0  0  0  0  0  0  0  0  0  0  0
    0.9424    2.4266   -2.9685 C   0  0  0  0  0  0  0  0  0  0  0  0
   -0.2856    3.0452   -2.7495 C   0  0  0  0  0  0  0  0  0  0  0  0
    2.1696   -0.1745   -0.2127 H   0  0  0  0  0  0  0  0  0  0  0  0
    1.2041   -0.4404    1.7935 H   0  0  0  0  0  0  0  0  0  0  0  0
    0.6784   -3.6575   -2.1978 H   0  0  0  0  0  0  0  0  0  0  0  0
   -0.9505   -3.3092   -1.5147 H   0  0  0  0  0  0  0  0  0  0  0  0
   -0.5649   -2.8637   -3.1859 H   0  0  0  0  0  0  0  0  0  0  0  0
   -1.2815    1.3438    0.0211 H   0  0  0  0  0  0  0  0  0  0  0  0
    2.3358    0.9410   -2.3015 H   0  0  0  0  0  0  0  0  0  0  0  0
   -2.0413    3.1345   -1.5055 H   0  0  0  0  0  0  0  0  0  0  0  0
    1.5655    2.7324   -3.8049 H   0  0  0  0  0  0  0  0  0  0  0  0
   -0.6207    3.8372   -3.4138 H   0  0  0  0  0  0  0  0  0  0  0  0
  1  2  1  0  0  0  0
  1  3  1  0  0  0  0
  1  7  1  0  0  0  0
  1 13  1  0  0  0  0
  2  4  1  0  0  0  0
  2  5  2  0  0  0  0
  3 14  1  0  0  0  0
  4  6  1  0  0  0  0
  6 15  1  0  0  0  0
  6 16  1  0  0  0  0
  6 17  1  0  0  0  0
  7  8  2  0  0  0  0
  7  9  1  0  0  0  0
  8 10  1  0  0  0  0
  8 18  1  0  0  0  0
  9 11  2  0  0  0  0
  9 19  1  0  0  0  0
 10 12  2  0  0  0  0
 10 20  1  0  0  0  0
 11 12  1  0  0  0  0
 11 21  1  0  0  0  0
 12 22  1  0  0  0  0
M  END
>  <Mol_ID>
7349

>  <Formula>
C9H10O3

>  <MolWeight>
166.1739

>  <Cat>
E4396

>  <Name>
Methyl DL-mandelate

>  <Synonyms>
Methyl DL-mandelate

>  <Target>
Others

>  <Form>
free base

>  <CAS>
4358-87-6

>  <URL>
https://www.selleckchem.com/products/methyl-dl-mandelate.html

$$$$
