Methoxsalen.cdx
 OpenBabel08302521233D

 24 26  0  0  0  0  0  0  0  0999 V2000
   -2.8867    1.2686    0.0160 C   0  0  0  0  0  0  0  0  0  0  0  0
   -3.0779   -0.1866    0.0059 C   0  0  0  0  0  0  0  0  0  0  0  0
   -1.9249   -0.9529   -0.0025 O   0  0  0  0  0  0  0  0  0  0  0  0
   -0.6126   -0.4114   -0.0079 C   0  0  0  0  0  0  0  0  0  0  0  0
   -0.4784    0.9868   -0.0093 C   0  0  0  0  0  0  0  0  0  0  0  0
   -1.6721    1.8252    0.0060 C   0  0  0  0  0  0  0  0  0  0  0  0
    0.4869   -1.2902   -0.0092 C   0  0  0  0  0  0  0  0  0  0  0  0
    1.7343   -0.6462   -0.0094 C   0  0  0  0  0  0  0  0  0  0  0  0
    1.9230    0.7329   -0.0151 C   0  0  0  0  0  0  0  0  0  0  0  0
    0.7949    1.5725   -0.0180 C   0  0  0  0  0  0  0  0  0  0  0  0
    2.9524   -1.2708   -0.0024 O   0  0  0  0  0  0  0  0  0  0  0  0
    3.9053   -0.3053   -0.0021 C   0  0  0  0  0  0  0  0  0  0  0  0
    3.3284    0.9425   -0.0133 C   0  0  0  0  0  0  0  0  0  0  0  0
   -4.1966   -0.6815    0.0060 O   0  0  0  0  0  0  0  0  0  0  0  0
    0.4904   -2.6552   -0.0065 O   0  0  0  0  0  0  0  0  0  0  0  0
   -0.7513   -3.3439   -0.0007 C   0  0  0  0  0  0  0  0  0  0  0  0
   -3.7917    1.8621    0.0324 H   0  0  0  0  0  0  0  0  0  0  0  0
   -1.5584    2.9032    0.0149 H   0  0  0  0  0  0  0  0  0  0  0  0
    0.9214    2.6508   -0.0216 H   0  0  0  0  0  0  0  0  0  0  0  0
    4.9273   -0.6586    0.0072 H   0  0  0  0  0  0  0  0  0  0  0  0
    3.8552    1.8859   -0.0159 H   0  0  0  0  0  0  0  0  0  0  0  0
   -1.3129   -3.1366    0.9157 H   0  0  0  0  0  0  0  0  0  0  0  0
   -1.3335   -3.1188   -0.8999 H   0  0  0  0  0  0  0  0  0  0  0  0
   -0.5404   -4.4176   -0.0152 H   0  0  0  0  0  0  0  0  0  0  0  0
  1  2  1  0  0  0  0
  1 17  1  0  0  0  0
  2  3  1  0  0  0  0
  2 14  2  0  0  0  0
  3  4  1  0  0  0  0
  4  5  2  0  0  0  0
  4  7  1  0  0  0  0
  5  6  1  0  0  0  0
  6  1  2  0  0  0  0
  6 18  1  0  0  0  0
  7  8  2  0  0  0  0
  7 15  1  0  0  0  0
  8  9  1  0  0  0  0
  8 11  1  0  0  0  0
  9 10  2  0  0  0  0
 10  5  1  0  0  0  0
 10 19  1  0  0  0  0
 11 12  1  0  0  0  0
 12 13  2  0  0  0  0
 12 20  1  0  0  0  0
 13  9  1  0  0  0  0
 13 21  1  0  0  0  0
 15 16  1  0  0  0  0
 16 22  1  0  0  0  0
 16 23  1  0  0  0  0
 16 24  1  0  0  0  0
M  END
>  <Mol_ID>
465

>  <Formula>
C12H8O4

>  <MolWeight>
216.18952

>  <Cat>
S1952

>  <Name>
Methoxsalen

>  <Synonyms>
Xanthotoxin, NCI-C55903

>  <Target>
P450 (e.g. CYP17)

>  <Form>
free base

>  <CAS>
298-81-7

>  <URL>
http://selleckchem.com/products/Methoxsalen(Oxsoralen).html

$$$$
