Methyl nicotinate
 OpenBabel08302520383D

 17 17  0  0  0  0  0  0  0  0999 V2000
    0.6710    1.1918   -0.0029 C   0  0  0  0  0  0  0  0  0  0  0  0
    1.2149    2.5748   -0.0018 C   0  0  0  0  0  0  0  0  0  0  0  0
    1.4745    0.0473    0.0075 C   0  0  0  0  0  0  0  0  0  0  0  0
   -0.7064    1.0009   -0.0152 C   0  0  0  0  0  0  0  0  0  0  0  0
    2.5718    2.5510    0.0096 O   0  0  0  0  0  0  0  0  0  0  0  0
    0.5173    3.5783   -0.0095 O   0  0  0  0  0  0  0  0  0  0  0  0
    0.8824   -1.2182    0.0067 C   0  0  0  0  0  0  0  0  0  0  0  0
   -1.3085   -0.2190   -0.0164 N   0  0  0  0  0  0  0  0  0  0  0  0
    3.2180    3.8303    0.0154 C   0  0  0  0  0  0  0  0  0  0  0  0
   -0.5000   -1.3010   -0.0053 C   0  0  0  0  0  0  0  0  0  0  0  0
    2.5578    0.1249    0.0171 H   0  0  0  0  0  0  0  0  0  0  0  0
   -1.3978    1.8404   -0.0244 H   0  0  0  0  0  0  0  0  0  0  0  0
    1.4889   -2.1175    0.0147 H   0  0  0  0  0  0  0  0  0  0  0  0
    2.9940    4.3849   -0.9009 H   0  0  0  0  0  0  0  0  0  0  0  0
    2.9361    4.4087    0.9010 H   0  0  0  0  0  0  0  0  0  0  0  0
    4.2982    3.6561    0.0531 H   0  0  0  0  0  0  0  0  0  0  0  0
   -1.0062   -2.2629   -0.0062 H   0  0  0  0  0  0  0  0  0  0  0  0
  1  2  1  0  0  0  0
  1  3  2  0  0  0  0
  1  4  1  0  0  0  0
  2  5  1  0  0  0  0
  2  6  2  0  0  0  0
  3  7  1  0  0  0  0
  3 11  1  0  0  0  0
  4  8  2  0  0  0  0
  4 12  1  0  0  0  0
  5  9  1  0  0  0  0
  7 10  2  0  0  0  0
  7 13  1  0  0  0  0
  8 10  1  0  0  0  0
  9 14  1  0  0  0  0
  9 15  1  0  0  0  0
  9 16  1  0  0  0  0
 10 17  1  0  0  0  0
M  END
>  <Mol_ID>
3503

>  <Formula>
C7H7NO2

>  <MolWeight>
137.13598

>  <Cat>
S6231

>  <Name>
Methyl nicotinate

>  <Synonyms>
methyl pyridine-3-carboxylate

>  <Target>
Others

>  <Form>
free base

>  <CAS>
93-60-7

>  <URL>
http://www.selleck.cn/products/methyl-nicotinate.html

$$$$
