Methyl anisate
 OpenBabel08302521363D

 22 22  0  0  0  0  0  0  0  0999 V2000
    0.9765   -0.0400   -0.1950 C   0  0  0  0  0  0  0  0  0  0  0  0
    0.4588   -1.2924   -0.2314 O   0  0  0  0  0  0  0  0  0  0  0  0
    0.3255    0.9951   -0.2433 O   0  0  0  0  0  0  0  0  0  0  0  0
   -0.9677   -1.3074   -0.3272 C   0  0  0  0  0  0  0  0  0  0  0  0
    6.6274    0.0418    0.2355 O   0  0  0  0  0  0  0  0  0  0  0  0
    7.3217    1.2819    0.3252 C   0  0  0  0  0  0  0  0  0  0  0  0
    2.4601   -0.0498   -0.0794 C   0  0  0  0  0  0  0  0  0  0  0  0
    3.1092    1.1909   -0.0038 C   0  0  0  0  0  0  0  0  0  0  0  0
    3.2238   -1.2205   -0.0418 C   0  0  0  0  0  0  0  0  0  0  0  0
    4.5010    1.2668    0.1080 C   0  0  0  0  0  0  0  0  0  0  0  0
    4.6189   -1.1382    0.0670 C   0  0  0  0  0  0  0  0  0  0  0  0
    5.2643    0.1015    0.1407 C   0  0  0  0  0  0  0  0  0  0  0  0
   -1.4158   -0.8130    0.5408 H   0  0  0  0  0  0  0  0  0  0  0  0
   -1.2952   -0.8260   -1.2544 H   0  0  0  0  0  0  0  0  0  0  0  0
   -1.3037   -2.3485   -0.3418 H   0  0  0  0  0  0  0  0  0  0  0  0
    7.1257    1.9148   -0.5472 H   0  0  0  0  0  0  0  0  0  0  0  0
    7.0720    1.8035    1.2553 H   0  0  0  0  0  0  0  0  0  0  0  0
    8.3944    1.0664    0.3403 H   0  0  0  0  0  0  0  0  0  0  0  0
    2.5293    2.1118   -0.0315 H   0  0  0  0  0  0  0  0  0  0  0  0
    2.7553   -2.1994   -0.0974 H   0  0  0  0  0  0  0  0  0  0  0  0
    4.9516    2.2523    0.1648 H   0  0  0  0  0  0  0  0  0  0  0  0
    5.2118   -2.0506    0.0944 H   0  0  0  0  0  0  0  0  0  0  0  0
  1  2  1  0  0  0  0
  1  3  2  0  0  0  0
  1  7  1  0  0  0  0
  2  4  1  0  0  0  0
  4 13  1  0  0  0  0
  4 14  1  0  0  0  0
  4 15  1  0  0  0  0
  5  6  1  0  0  0  0
  5 12  1  0  0  0  0
  6 16  1  0  0  0  0
  6 17  1  0  0  0  0
  6 18  1  0  0  0  0
  7  8  2  0  0  0  0
  7  9  1  0  0  0  0
  8 10  1  0  0  0  0
  8 19  1  0  0  0  0
  9 11  2  0  0  0  0
  9 20  1  0  0  0  0
 10 12  2  0  0  0  0
 10 21  1  0  0  0  0
 11 12  1  0  0  0  0
 11 22  1  0  0  0  0
M  END
>  <Mol_ID>
7195

>  <Formula>
C9H10O3

>  <MolWeight>
166.1739

>  <Cat>
E4195

>  <Name>
Methyl anisate

>  <Synonyms>
Methyl 4-anisate

>  <Target>
Endogenous Metabolite

>  <Form>
free base

>  <CAS>
121-98-2

>  <URL>
https://www.selleckchem.com/products/methyl-anisate.html

$$$$
