Methyl indole-3-carboxylate
 OpenBabel08302521363D

 22 23  0  0  0  0  0  0  0  0999 V2000
    0.9711    0.0956    0.0723 C   0  0  0  0  0  0  0  0  0  0  0  0
    0.3815   -1.1331    0.0785 O   0  0  0  0  0  0  0  0  0  0  0  0
    0.3522    1.1548    0.0748 O   0  0  0  0  0  0  0  0  0  0  0  0
   -1.0438   -1.1355    0.0850 C   0  0  0  0  0  0  0  0  0  0  0  0
    3.2711   -1.1565    0.0622 C   0  0  0  0  0  0  0  0  0  0  0  0
    2.4302    0.0111    0.0641 C   0  0  0  0  0  0  0  0  0  0  0  0
    4.5984   -0.7207    0.0487 C   0  0  0  0  0  0  0  0  0  0  0  0
    3.0332   -2.5498    0.0689 C   0  0  0  0  0  0  0  0  0  0  0  0
    3.2822    1.1045    0.0536 C   0  0  0  0  0  0  0  0  0  0  0  0
    4.5743    0.6540    0.0466 N   0  0  0  0  0  0  0  0  0  0  0  0
    5.6872   -1.6029    0.0403 C   0  0  0  0  0  0  0  0  0  0  0  0
    4.1060   -3.4430    0.0583 C   0  0  0  0  0  0  0  0  0  0  0  0
    5.4152   -2.9744    0.0437 C   0  0  0  0  0  0  0  0  0  0  0  0
   -1.4245   -0.6776    1.0023 H   0  0  0  0  0  0  0  0  0  0  0  0
   -1.4355   -0.6297   -0.8020 H   0  0  0  0  0  0  0  0  0  0  0  0
   -1.3717   -2.1793    0.0588 H   0  0  0  0  0  0  0  0  0  0  0  0
    2.0199   -2.9400    0.0810 H   0  0  0  0  0  0  0  0  0  0  0  0
    3.0677    2.1655    0.0496 H   0  0  0  0  0  0  0  0  0  0  0  0
    5.3975    1.2411    0.0390 H   0  0  0  0  0  0  0  0  0  0  0  0
    6.7107   -1.2422    0.0302 H   0  0  0  0  0  0  0  0  0  0  0  0
    3.9108   -4.5128    0.0608 H   0  0  0  0  0  0  0  0  0  0  0  0
    6.2383   -3.6851    0.0342 H   0  0  0  0  0  0  0  0  0  0  0  0
  1  2  1  0  0  0  0
  1  3  2  0  0  0  0
  1  6  1  0  0  0  0
  2  4  1  0  0  0  0
  4 14  1  0  0  0  0
  4 15  1  0  0  0  0
  4 16  1  0  0  0  0
  5  6  1  0  0  0  0
  5  7  2  0  0  0  0
  5  8  1  0  0  0  0
  6  9  2  0  0  0  0
  7 10  1  0  0  0  0
  7 11  1  0  0  0  0
  8 12  2  0  0  0  0
  8 17  1  0  0  0  0
  9 10  1  0  0  0  0
  9 18  1  0  0  0  0
 10 19  1  0  0  0  0
 11 13  2  0  0  0  0
 11 20  1  0  0  0  0
 12 13  1  0  0  0  0
 12 21  1  0  0  0  0
 13 22  1  0  0  0  0
M  END
>  <Mol_ID>
7064

>  <Formula>
C10H9NO2

>  <MolWeight>
175.18396

>  <Cat>
E4077

>  <Name>
Methyl indole-3-carboxylate

>  <Synonyms>
Methyl 3-indolecarboxylate

>  <Target>
Others

>  <Form>
free base

>  <CAS>
942-24-5

>  <URL>
https://www.selleckchem.com/products/methyl-indole-3-carboxylate.html

$$$$
