methazolamide.cdx
 OpenBabel08302522033D

 22 22  0  0  0  0  0  0  0  0999 V2000
   -0.3846   -1.2743    0.0477 C   0  0  0  0  0  0  0  0  0  0  0  0
    1.3765   -0.9781    0.0728 S   0  0  0  0  0  0  0  0  0  0  0  0
   -1.0123   -0.0379    0.0433 N   0  0  0  0  0  0  0  0  0  0  0  0
   -0.6035   -2.5294    0.0391 N   0  0  0  0  0  0  0  0  0  0  0  0
    1.0467    0.7314    0.0440 C   0  0  0  0  0  0  0  0  0  0  0  0
   -0.2049    1.0971    0.0302 N   0  0  0  0  0  0  0  0  0  0  0  0
   -2.4292    0.2700    0.0520 C   0  0  0  0  0  0  0  0  0  0  0  0
   -1.7999   -3.1723    0.0022 C   0  0  0  0  0  0  0  0  0  0  0  0
    2.3455    1.9453    0.0044 S   0  0  0  0  0  0  0  0  0  0  0  0
   -1.6208   -4.6707    0.0707 C   0  0  0  0  0  0  0  0  0  0  0  0
   -2.9086   -2.6744   -0.1320 O   0  0  0  0  0  0  0  0  0  0  0  0
    1.7606    3.3572    0.7391 N   0  0  0  0  0  0  0  0  0  0  0  0
    3.4267    1.4796    0.8425 O   0  0  0  0  0  0  0  0  0  0  0  0
    2.5469    2.2969   -1.3844 O   0  0  0  0  0  0  0  0  0  0  0  0
   -2.6506    0.9539    0.8806 H   0  0  0  0  0  0  0  0  0  0  0  0
   -2.7084    0.7813   -0.8768 H   0  0  0  0  0  0  0  0  0  0  0  0
   -3.0875   -0.5793    0.1796 H   0  0  0  0  0  0  0  0  0  0  0  0
   -2.3198   -5.0924    0.7957 H   0  0  0  0  0  0  0  0  0  0  0  0
   -1.7948   -5.1003   -0.9195 H   0  0  0  0  0  0  0  0  0  0  0  0
   -0.6044   -4.9267    0.3900 H   0  0  0  0  0  0  0  0  0  0  0  0
    2.5452    3.9887    0.9039 H   0  0  0  0  0  0  0  0  0  0  0  0
    1.0415    3.7850    0.1542 H   0  0  0  0  0  0  0  0  0  0  0  0
  1  2  1  0  0  0  0
  1  3  1  0  0  0  0
  1  4  2  0  0  0  0
  2  5  1  0  0  0  0
  3  6  1  0  0  0  0
  3  7  1  0  0  0  0
  4  8  1  0  0  0  0
  5  9  1  0  0  0  0
  5  6  2  0  0  0  0
  7 15  1  0  0  0  0
  7 16  1  0  0  0  0
  7 17  1  0  0  0  0
  8 10  1  0  0  0  0
  8 11  2  0  0  0  0
  9 12  1  0  0  0  0
  9 13  2  0  0  0  0
  9 14  2  0  0  0  0
 10 18  1  0  0  0  0
 10 19  1  0  0  0  0
 10 20  1  0  0  0  0
 12 21  1  0  0  0  0
 12 22  1  0  0  0  0
M  END
>  <Mol_ID>
1206

>  <Formula>
C5H8N4O3S2

>  <MolWeight>
236.27202

>  <Cat>
S4039

>  <Name>
Methazolamide

>  <Synonyms>
CL 8490

>  <Target>
Carbonic Anhydrase

>  <Form>
free base

>  <CAS>
554-57-4

>  <URL>
http://selleckchem.com/products/methazolamide.html

$$$$
