Methazolastone (Temozolomide).cdx
 OpenBabel08302522013D

 20 21  0  0  0  0  0  0  0  0999 V2000
   -1.6087    0.2361    0.0073 N   0  0  0  0  0  0  0  0  0  0  0  0
   -1.2311    1.5578    0.0072 N   0  0  0  0  0  0  0  0  0  0  0  0
   -0.0180    1.8663    0.0030 N   0  0  0  0  0  0  0  0  0  0  0  0
    0.9338    0.9105    0.0004 C   0  0  0  0  0  0  0  0  0  0  0  0
    0.5748   -0.4062    0.0010 N   0  0  0  0  0  0  0  0  0  0  0  0
   -0.7367   -0.8374    0.0048 C   0  0  0  0  0  0  0  0  0  0  0  0
    2.3164    0.9124   -0.0018 C   0  0  0  0  0  0  0  0  0  0  0  0
    2.8001   -0.3945   -0.0031 N   0  0  0  0  0  0  0  0  0  0  0  0
    1.7240   -1.1529   -0.0016 C   0  0  0  0  0  0  0  0  0  0  0  0
   -3.0327   -0.0150    0.0157 C   0  0  0  0  0  0  0  0  0  0  0  0
   -0.9894   -2.0331    0.0056 O   0  0  0  0  0  0  0  0  0  0  0  0
    3.1796    2.0875   -0.0020 C   0  0  0  0  0  0  0  0  0  0  0  0
    4.5133    1.7956   -0.0010 N   0  0  0  0  0  0  0  0  0  0  0  0
    2.7805    3.2460   -0.0031 O   0  0  0  0  0  0  0  0  0  0  0  0
    1.7056   -2.2362   -0.0020 H   0  0  0  0  0  0  0  0  0  0  0  0
   -3.2964   -0.6066   -0.8659 H   0  0  0  0  0  0  0  0  0  0  0  0
   -3.2885   -0.5856    0.9133 H   0  0  0  0  0  0  0  0  0  0  0  0
   -3.5910    0.9258    0.0070 H   0  0  0  0  0  0  0  0  0  0  0  0
    5.1792    2.5534   -0.0015 H   0  0  0  0  0  0  0  0  0  0  0  0
    4.8207    0.8311   -0.0007 H   0  0  0  0  0  0  0  0  0  0  0  0
  1  2  1  0  0  0  0
  1 10  1  0  0  0  0
  2  3  2  0  0  0  0
  3  4  1  0  0  0  0
  4  5  1  0  0  0  0
  4  7  2  0  0  0  0
  5  6  1  0  0  0  0
  6  1  1  0  0  0  0
  6 11  2  0  0  0  0
  7  8  1  0  0  0  0
  7 12  1  0  0  0  0
  8  9  2  0  0  0  0
  9  5  1  0  0  0  0
  9 15  1  0  0  0  0
 10 16  1  0  0  0  0
 10 17  1  0  0  0  0
 10 18  1  0  0  0  0
 12 13  1  0  0  0  0
 12 14  2  0  0  0  0
 13 19  1  0  0  0  0
 13 20  1  0  0  0  0
M  END
>  <Mol_ID>
134

>  <Formula>
C6H6N6O2

>  <MolWeight>
194.15084

>  <Cat>
S1237

>  <Name>
Temozolomide (CCRG 81045)

>  <Synonyms>
NSC 362856,TMZ,CCRG 81045,Methazolastone,Temodar,Temodal

>  <Target>
Apoptosis related,Autophagy,DNA/RNA Synthesis

>  <Form>
free base

>  <CAS>
85622-93-1

>  <URL>
http://selleckchem.com/products/Methazolastone.html

$$$$
