Mexenone
 OpenBabel08302520343D

 32 33  0  0  0  0  0  0  0  0999 V2000
    0.1965   -1.2393   -0.0084 C   0  0  0  0  0  0  0  0  0  0  0  0
    0.8797   -2.5598    0.0829 C   0  0  0  0  0  0  0  0  0  0  0  0
    0.9003   -0.0265   -0.0466 C   0  0  0  0  0  0  0  0  0  0  0  0
   -1.2029   -1.2238   -0.0589 C   0  0  0  0  0  0  0  0  0  0  0  0
    0.1921   -3.7223    0.7271 C   0  0  0  0  0  0  0  0  0  0  0  0
    2.0019   -2.6676   -0.3816 O   0  0  0  0  0  0  0  0  0  0  0  0
    0.1918    1.1769   -0.0431 C   0  0  0  0  0  0  0  0  0  0  0  0
    2.2584    0.0820   -0.0630 O   0  0  0  0  0  0  0  0  0  0  0  0
   -1.9003   -0.0244   -0.0500 C   0  0  0  0  0  0  0  0  0  0  0  0
   -0.7172   -3.5662    1.7853 C   0  0  0  0  0  0  0  0  0  0  0  0
    0.4632   -5.0035    0.2469 C   0  0  0  0  0  0  0  0  0  0  0  0
   -1.2090    1.1806   -0.0319 C   0  0  0  0  0  0  0  0  0  0  0  0
   -1.3420   -4.6765    2.3525 C   0  0  0  0  0  0  0  0  0  0  0  0
   -0.1668   -6.1172    0.8153 C   0  0  0  0  0  0  0  0  0  0  0  0
   -1.7722    2.4294   -0.0131 O   0  0  0  0  0  0  0  0  0  0  0  0
   -1.0698   -5.9595    1.8764 C   0  0  0  0  0  0  0  0  0  0  0  0
   -3.1934    2.4918   -0.0034 C   0  0  0  0  0  0  0  0  0  0  0  0
   -1.7411   -7.1560    2.4833 C   0  0  0  0  0  0  0  0  0  0  0  0
   -1.7623   -2.1534   -0.0685 H   0  0  0  0  0  0  0  0  0  0  0  0
    0.7359    2.1187   -0.0425 H   0  0  0  0  0  0  0  0  0  0  0  0
    2.6442   -0.8051   -0.2496 H   0  0  0  0  0  0  0  0  0  0  0  0
   -2.9871   -0.0634   -0.0558 H   0  0  0  0  0  0  0  0  0  0  0  0
   -0.9767   -2.5860    2.1779 H   0  0  0  0  0  0  0  0  0  0  0  0
    1.1578   -5.1449   -0.5798 H   0  0  0  0  0  0  0  0  0  0  0  0
   -2.0395   -4.5281    3.1755 H   0  0  0  0  0  0  0  0  0  0  0  0
    0.0518   -7.1077    0.4255 H   0  0  0  0  0  0  0  0  0  0  0  0
   -3.6133    2.0358   -0.9057 H   0  0  0  0  0  0  0  0  0  0  0  0
   -3.6018    2.0290    0.9012 H   0  0  0  0  0  0  0  0  0  0  0  0
   -3.4821    3.5468    0.0021 H   0  0  0  0  0  0  0  0  0  0  0  0
   -2.3564   -7.6612    1.7334 H   0  0  0  0  0  0  0  0  0  0  0  0
   -0.9948   -7.8538    2.8747 H   0  0  0  0  0  0  0  0  0  0  0  0
   -2.3951   -6.8660    3.3135 H   0  0  0  0  0  0  0  0  0  0  0  0
  1  2  1  0  0  0  0
  1  3  2  0  0  0  0
  1  4  1  0  0  0  0
  2  5  1  0  0  0  0
  2  6  2  0  0  0  0
  3  7  1  0  0  0  0
  3  8  1  0  0  0  0
  4  9  2  0  0  0  0
  4 19  1  0  0  0  0
  5 10  2  0  0  0  0
  5 11  1  0  0  0  0
  7 12  2  0  0  0  0
  7 20  1  0  0  0  0
  8 21  1  0  0  0  0
  9 12  1  0  0  0  0
  9 22  1  0  0  0  0
 10 13  1  0  0  0  0
 10 23  1  0  0  0  0
 11 14  2  0  0  0  0
 11 24  1  0  0  0  0
 12 15  1  0  0  0  0
 13 16  2  0  0  0  0
 13 25  1  0  0  0  0
 14 16  1  0  0  0  0
 14 26  1  0  0  0  0
 15 17  1  0  0  0  0
 16 18  1  0  0  0  0
 17 27  1  0  0  0  0
 17 28  1  0  0  0  0
 17 29  1  0  0  0  0
 18 30  1  0  0  0  0
 18 31  1  0  0  0  0
 18 32  1  0  0  0  0
M  END
>  <Mol_ID>
3367

>  <Formula>
C15H14O3

>  <MolWeight>
242.26986

>  <Cat>
S5692

>  <Name>
Mexenone

>  <Synonyms>
Benzophenone-10

>  <Target>
Others

>  <Form>
Free Base

>  <CAS>
1641-17-4

>  <URL>
http://www.selleckchem.com/products/mexenone.html

$$$$
