MG132 SSS
 OpenBabel08302521373D

 75 75  0  0  1  0  0  0  0  0999 V2000
    0.8268    0.1050   -0.1507 C   0  0  2  0  0  0  0  0  0  0  0  0
    0.2283    1.4459   -0.1782 N   0  0  0  0  0  0  0  0  0  0  0  0
   -0.0451   -0.9837    0.5379 C   0  0  0  0  0  0  0  0  0  0  0  0
    2.2757    0.1195    0.3750 C   0  0  0  0  0  0  0  0  0  0  0  0
   -0.5142    1.8706   -1.2612 C   0  0  0  0  0  0  0  0  0  0  0  0
   -1.2596   -0.5567    1.0299 N   0  0  0  0  0  0  0  0  0  0  0  0
    0.3202   -2.1538    0.6364 O   0  0  0  0  0  0  0  0  0  0  0  0
    2.5059    0.7478    1.7664 C   0  0  0  0  0  0  0  0  0  0  0  0
   -1.0532    3.3149   -1.1571 C   0  0  1  0  0  0  0  0  0  0  0  0
   -0.7012    1.1682   -2.2490 O   0  0  0  0  0  0  0  0  0  0  0  0
   -2.1938   -1.4543    1.7123 C   0  0  1  0  0  0  0  0  0  0  0  0
    1.8110   -0.0120    2.8936 C   0  0  0  0  0  0  0  0  0  0  0  0
    4.0071    0.8273    2.0622 C   0  0  0  0  0  0  0  0  0  0  0  0
   -0.1304    4.2130   -1.8495 N   0  0  0  0  0  0  0  0  0  0  0  0
   -2.4480    3.3912   -1.8096 C   0  0  0  0  0  0  0  0  0  0  0  0
   -1.9273   -1.5034    3.2281 C   0  0  0  0  0  0  0  0  0  0  0  0
   -3.5786   -0.9202    1.3900 C   0  0  0  0  0  0  0  0  0  0  0  0
    0.9771    4.7519   -1.2670 C   0  0  0  0  0  0  0  0  0  0  0  0
   -3.5143    2.4601   -1.1882 C   0  0  0  0  0  0  0  0  0  0  0  0
   -2.8817   -2.3974    4.0563 C   0  0  0  0  0  0  0  0  0  0  0  0
   -4.1331   -0.0172    2.0129 O   0  0  0  0  0  0  0  0  0  0  0  0
    1.6578    5.4818   -2.1840 O   0  0  0  0  0  0  0  0  0  0  0  0
    1.2791    4.5957   -0.0934 O   0  0  0  0  0  0  0  0  0  0  0  0
   -3.8010    2.7982    0.2734 C   0  0  0  0  0  0  0  0  0  0  0  0
   -4.8083    2.5310   -2.0044 C   0  0  0  0  0  0  0  0  0  0  0  0
   -2.8757   -3.8589    3.6063 C   0  0  0  0  0  0  0  0  0  0  0  0
   -2.5060   -2.3209    5.5413 C   0  0  0  0  0  0  0  0  0  0  0  0
    2.7690    6.2586   -1.7052 C   0  0  0  0  0  0  0  0  0  0  0  0
    4.0308    5.9794   -2.4918 C   0  0  0  0  0  0  0  0  0  0  0  0
    4.0536    6.0840   -3.8901 C   0  0  0  0  0  0  0  0  0  0  0  0
    5.2325    5.6998   -1.8215 C   0  0  0  0  0  0  0  0  0  0  0  0
    5.2531    5.9281   -4.5947 C   0  0  0  0  0  0  0  0  0  0  0  0
    6.4298    5.5484   -2.5260 C   0  0  0  0  0  0  0  0  0  0  0  0
    6.4409    5.6697   -3.9130 C   0  0  0  0  0  0  0  0  0  0  0  0
    0.8860   -0.2398   -1.1926 H   0  0  0  0  0  0  0  0  0  0  0  0
    0.5602    2.1551    0.4666 H   0  0  0  0  0  0  0  0  0  0  0  0
    2.6734   -0.9045    0.3716 H   0  0  0  0  0  0  0  0  0  0  0  0
    2.8810    0.6801   -0.3514 H   0  0  0  0  0  0  0  0  0  0  0  0
   -1.4542    0.4384    1.0050 H   0  0  0  0  0  0  0  0  0  0  0  0
    2.1287    1.7761    1.7648 H   0  0  0  0  0  0  0  0  0  0  0  0
   -1.1057    3.6151   -0.1048 H   0  0  0  0  0  0  0  0  0  0  0  0
   -2.1061   -2.4572    1.2820 H   0  0  0  0  0  0  0  0  0  0  0  0
    2.1222   -1.0618    2.9196 H   0  0  0  0  0  0  0  0  0  0  0  0
    2.0442    0.4354    3.8652 H   0  0  0  0  0  0  0  0  0  0  0  0
    0.7261    0.0280    2.7902 H   0  0  0  0  0  0  0  0  0  0  0  0
    4.5291    1.4019    1.2896 H   0  0  0  0  0  0  0  0  0  0  0  0
    4.1821    1.3270    3.0210 H   0  0  0  0  0  0  0  0  0  0  0  0
    4.4588   -0.1691    2.1130 H   0  0  0  0  0  0  0  0  0  0  0  0
   -0.1898    4.3133   -2.8538 H   0  0  0  0  0  0  0  0  0  0  0  0
   -2.8052    4.4288   -1.7724 H   0  0  0  0  0  0  0  0  0  0  0  0
   -2.3561    3.1463   -2.8772 H   0  0  0  0  0  0  0  0  0  0  0  0
   -0.8960   -1.8417    3.3930 H   0  0  0  0  0  0  0  0  0  0  0  0
   -1.9757   -0.4830    3.6327 H   0  0  0  0  0  0  0  0  0  0  0  0
   -4.0271   -1.3162    0.4629 H   0  0  0  0  0  0  0  0  0  0  0  0
   -3.1666    1.4210   -1.2320 H   0  0  0  0  0  0  0  0  0  0  0  0
   -3.9066   -2.0181    3.9614 H   0  0  0  0  0  0  0  0  0  0  0  0
   -4.1031    3.8437    0.3891 H   0  0  0  0  0  0  0  0  0  0  0  0
   -4.6118    2.1728    0.6609 H   0  0  0  0  0  0  0  0  0  0  0  0
   -2.9232    2.6210    0.9022 H   0  0  0  0  0  0  0  0  0  0  0  0
   -4.6272    2.2391   -3.0445 H   0  0  0  0  0  0  0  0  0  0  0  0
   -5.5638    1.8498   -1.5977 H   0  0  0  0  0  0  0  0  0  0  0  0
   -5.2265    3.5429   -2.0021 H   0  0  0  0  0  0  0  0  0  0  0  0
   -1.8560   -4.2521    3.5409 H   0  0  0  0  0  0  0  0  0  0  0  0
   -3.4323   -4.4870    4.3117 H   0  0  0  0  0  0  0  0  0  0  0  0
   -3.3534   -3.9721    2.6286 H   0  0  0  0  0  0  0  0  0  0  0  0
   -2.5609   -1.2900    5.9059 H   0  0  0  0  0  0  0  0  0  0  0  0
   -3.1915   -2.9228    6.1486 H   0  0  0  0  0  0  0  0  0  0  0  0
   -1.4893   -2.6904    5.7142 H   0  0  0  0  0  0  0  0  0  0  0  0
    2.5165    7.3168   -1.8493 H   0  0  0  0  0  0  0  0  0  0  0  0
    2.9467    6.1218   -0.6329 H   0  0  0  0  0  0  0  0  0  0  0  0
    3.1417    6.3086   -4.4392 H   0  0  0  0  0  0  0  0  0  0  0  0
    5.2510    5.6187   -0.7367 H   0  0  0  0  0  0  0  0  0  0  0  0
    5.2639    6.0235   -5.6785 H   0  0  0  0  0  0  0  0  0  0  0  0
    7.3557    5.3510   -1.9918 H   0  0  0  0  0  0  0  0  0  0  0  0
    7.3746    5.5676   -4.4613 H   0  0  0  0  0  0  0  0  0  0  0  0
  1  2  1  0  0  0  0
  1  3  1  0  0  0  0
  1  4  1  0  0  0  0
  1 35  1  6  0  0  0
  2  5  1  0  0  0  0
  2 36  1  0  0  0  0
  3  6  1  0  0  0  0
  3  7  2  0  0  0  0
  4  8  1  0  0  0  0
  4 37  1  0  0  0  0
  4 38  1  0  0  0  0
  5  9  1  0  0  0  0
  5 10  2  0  0  0  0
  6 11  1  0  0  0  0
  6 39  1  0  0  0  0
  8 12  1  0  0  0  0
  8 13  1  0  0  0  0
  8 40  1  0  0  0  0
  9 14  1  0  0  0  0
  9 15  1  0  0  0  0
  9 41  1  1  0  0  0
 11 16  1  0  0  0  0
 11 17  1  0  0  0  0
 11 42  1  6  0  0  0
 12 43  1  0  0  0  0
 12 44  1  0  0  0  0
 12 45  1  0  0  0  0
 13 46  1  0  0  0  0
 13 47  1  0  0  0  0
 13 48  1  0  0  0  0
 14 18  1  0  0  0  0
 14 49  1  0  0  0  0
 15 19  1  0  0  0  0
 15 50  1  0  0  0  0
 15 51  1  0  0  0  0
 16 20  1  0  0  0  0
 16 52  1  0  0  0  0
 16 53  1  0  0  0  0
 17 21  2  0  0  0  0
 17 54  1  0  0  0  0
 18 22  1  0  0  0  0
 18 23  2  0  0  0  0
 19 24  1  0  0  0  0
 19 25  1  0  0  0  0
 19 55  1  0  0  0  0
 20 26  1  0  0  0  0
 20 27  1  0  0  0  0
 20 56  1  0  0  0  0
 22 28  1  0  0  0  0
 24 57  1  0  0  0  0
 24 58  1  0  0  0  0
 24 59  1  0  0  0  0
 25 60  1  0  0  0  0
 25 61  1  0  0  0  0
 25 62  1  0  0  0  0
 26 63  1  0  0  0  0
 26 64  1  0  0  0  0
 26 65  1  0  0  0  0
 27 66  1  0  0  0  0
 27 67  1  0  0  0  0
 27 68  1  0  0  0  0
 28 29  1  0  0  0  0
 28 69  1  0  0  0  0
 28 70  1  0  0  0  0
 29 30  2  0  0  0  0
 29 31  1  0  0  0  0
 30 32  1  0  0  0  0
 30 71  1  0  0  0  0
 31 33  2  0  0  0  0
 31 72  1  0  0  0  0
 32 34  2  0  0  0  0
 32 73  1  0  0  0  0
 33 34  1  0  0  0  0
 33 74  1  0  0  0  0
 34 75  1  0  0  0  0
M  END
>  <Mol_ID>
7587

>  <Formula>
C26H41N3O5

>  <MolWeight>
475.62084

>  <Cat>
E2899

>  <Name>
MG132 SSS

>  <Synonyms>
Z-Leu-Leu-Leu-al, MG132

>  <Target>
Cysteine Protease

>  <Form>
free base

>  <CAS>
133407-82-6

>  <URL>
https://www.selleckchem.com/products/mg-132-sss.html

$$$$
