MG 101.cdx
 OpenBabel08302519583D

 64 63  0  0  0  0  0  0  0  0999 V2000
    4.5541   -4.0019    1.7097 C   0  0  0  0  0  0  0  0  0  0  0  0
    5.2453   -2.6948    1.4612 C   0  0  0  0  0  0  0  0  0  0  0  0
    5.0085   -2.1466    0.2202 N   0  0  0  0  0  0  0  0  0  0  0  0
    5.1537   -0.6967    0.0063 C   0  0  2  0  0  0  0  0  0  0  0  0
    3.7878   -0.0097    0.3077 C   0  0  0  0  0  0  0  0  0  0  0  0
    2.7366   -0.8873    0.4941 N   0  0  0  0  0  0  0  0  0  0  0  0
    1.3464   -0.4735    0.3540 C   0  0  2  0  0  0  0  0  0  0  0  0
    0.3123   -1.3239    1.1410 C   0  0  0  0  0  0  0  0  0  0  0  0
    0.6174   -2.6533    1.3511 N   0  0  0  0  0  0  0  0  0  0  0  0
   -0.3138   -3.6079    1.9695 C   0  0  1  0  0  0  0  0  0  0  0  0
   -0.7648   -4.6819    0.9637 C   0  0  0  0  0  0  0  0  0  0  0  0
   -1.6896   -5.7808    1.5006 C   0  0  0  0  0  0  0  0  0  0  0  0
    5.8977   -2.1253    2.3346 O   0  0  0  0  0  0  0  0  0  0  0  0
    5.5899   -0.4240   -1.4453 C   0  0  0  0  0  0  0  0  0  0  0  0
    3.6275    1.2078    0.2698 O   0  0  0  0  0  0  0  0  0  0  0  0
    0.9980   -0.3345   -1.1514 C   0  0  0  0  0  0  0  0  0  0  0  0
    1.1538   -1.5971   -2.0376 C   0  0  0  0  0  0  0  0  0  0  0  0
    0.0577   -2.6252   -1.8171 C   0  0  0  0  0  0  0  0  0  0  0  0
    1.1123   -1.2203   -3.5203 C   0  0  0  0  0  0  0  0  0  0  0  0
    5.8777    1.0555   -1.7903 C   0  0  0  0  0  0  0  0  0  0  0  0
    6.9760    1.6584   -0.9134 C   0  0  0  0  0  0  0  0  0  0  0  0
    6.2518    1.2020   -3.2676 C   0  0  0  0  0  0  0  0  0  0  0  0
   -0.7953   -0.8719    1.4364 O   0  0  0  0  0  0  0  0  0  0  0  0
    0.4487   -4.2534    3.1124 C   0  0  0  0  0  0  0  0  0  0  0  0
   -3.0123   -5.2937    2.0922 C   0  0  0  0  0  0  0  0  0  0  0  0
   -3.9101   -4.5799    1.0907 C   0  0  0  0  0  0  0  0  0  0  0  0
    1.6411   -4.5511    3.0430 O   0  0  0  0  0  0  0  0  0  0  0  0
    3.8115   -4.2224    0.9363 H   0  0  0  0  0  0  0  0  0  0  0  0
    4.0276   -3.9199    2.6633 H   0  0  0  0  0  0  0  0  0  0  0  0
    5.2807   -4.8158    1.7625 H   0  0  0  0  0  0  0  0  0  0  0  0
    4.4872   -2.6730   -0.4731 H   0  0  0  0  0  0  0  0  0  0  0  0
    5.8876   -0.3136    0.7225 H   0  0  0  0  0  0  0  0  0  0  0  0
    2.9743   -1.8366    0.7221 H   0  0  0  0  0  0  0  0  0  0  0  0
    1.2804    0.5302    0.8000 H   0  0  0  0  0  0  0  0  0  0  0  0
    1.5226   -3.0196    1.1003 H   0  0  0  0  0  0  0  0  0  0  0  0
   -1.1679   -3.0651    2.3820 H   0  0  0  0  0  0  0  0  0  0  0  0
   -1.2726   -4.2028    0.1209 H   0  0  0  0  0  0  0  0  0  0  0  0
    0.1219   -5.1747    0.5397 H   0  0  0  0  0  0  0  0  0  0  0  0
   -1.9064   -6.4783    0.6794 H   0  0  0  0  0  0  0  0  0  0  0  0
   -1.1568   -6.3667    2.2589 H   0  0  0  0  0  0  0  0  0  0  0  0
    6.4880   -1.0201   -1.6610 H   0  0  0  0  0  0  0  0  0  0  0  0
    4.8110   -0.7952   -2.1275 H   0  0  0  0  0  0  0  0  0  0  0  0
   -0.0173    0.0627   -1.2516 H   0  0  0  0  0  0  0  0  0  0  0  0
    1.6671    0.4332   -1.5659 H   0  0  0  0  0  0  0  0  0  0  0  0
    2.1244   -2.0685   -1.8401 H   0  0  0  0  0  0  0  0  0  0  0  0
   -0.9397   -2.1769   -1.8246 H   0  0  0  0  0  0  0  0  0  0  0  0
    0.0867   -3.4255   -2.5634 H   0  0  0  0  0  0  0  0  0  0  0  0
    0.2125   -3.1234   -0.8706 H   0  0  0  0  0  0  0  0  0  0  0  0
    1.9160   -0.5267   -3.7772 H   0  0  0  0  0  0  0  0  0  0  0  0
    1.2335   -2.1159   -4.1429 H   0  0  0  0  0  0  0  0  0  0  0  0
    0.1531   -0.7614   -3.7804 H   0  0  0  0  0  0  0  0  0  0  0  0
    4.9670    1.6443   -1.6483 H   0  0  0  0  0  0  0  0  0  0  0  0
    7.9091    1.0935   -1.0016 H   0  0  0  0  0  0  0  0  0  0  0  0
    7.1774    2.6947   -1.2032 H   0  0  0  0  0  0  0  0  0  0  0  0
    6.6824    1.6738    0.1408 H   0  0  0  0  0  0  0  0  0  0  0  0
    5.4507    0.8226   -3.9098 H   0  0  0  0  0  0  0  0  0  0  0  0
    6.4061    2.2570   -3.5222 H   0  0  0  0  0  0  0  0  0  0  0  0
    7.1706    0.6581   -3.5053 H   0  0  0  0  0  0  0  0  0  0  0  0
   -0.1498   -4.5038    4.0020 H   0  0  0  0  0  0  0  0  0  0  0  0
   -3.5561   -6.1628    2.4804 H   0  0  0  0  0  0  0  0  0  0  0  0
   -2.8232   -4.6371    2.9471 H   0  0  0  0  0  0  0  0  0  0  0  0
   -4.2028   -5.2526    0.2786 H   0  0  0  0  0  0  0  0  0  0  0  0
   -4.8226   -4.2366    1.5885 H   0  0  0  0  0  0  0  0  0  0  0  0
   -3.4224   -3.7038    0.6556 H   0  0  0  0  0  0  0  0  0  0  0  0
  1  2  1  0  0  0  0
  1 28  1  0  0  0  0
  1 29  1  0  0  0  0
  1 30  1  0  0  0  0
  2  3  1  0  0  0  0
  2 13  2  0  0  0  0
  3 31  1  0  0  0  0
  4 14  1  0  0  0  0
  4 32  1  1  0  0  0
  4  5  1  0  0  0  0
  4  3  1  0  0  0  0
  5  6  1  0  0  0  0
  5 15  2  0  0  0  0
  6 33  1  0  0  0  0
  7 16  1  0  0  0  0
  7 34  1  1  0  0  0
  7  8  1  0  0  0  0
  7  6  1  0  0  0  0
  8  9  1  0  0  0  0
  8 23  2  0  0  0  0
  9 10  1  0  0  0  0
  9 35  1  0  0  0  0
 10 11  1  0  0  0  0
 10 24  1  0  0  0  0
 10 36  1  1  0  0  0
 11 12  1  0  0  0  0
 11 37  1  0  0  0  0
 11 38  1  0  0  0  0
 12 25  1  0  0  0  0
 12 39  1  0  0  0  0
 12 40  1  0  0  0  0
 14 20  1  0  0  0  0
 14 41  1  0  0  0  0
 14 42  1  0  0  0  0
 16 17  1  0  0  0  0
 16 43  1  0  0  0  0
 16 44  1  0  0  0  0
 17 18  1  0  0  0  0
 17 19  1  0  0  0  0
 17 45  1  0  0  0  0
 18 46  1  0  0  0  0
 18 47  1  0  0  0  0
 18 48  1  0  0  0  0
 19 49  1  0  0  0  0
 19 50  1  0  0  0  0
 19 51  1  0  0  0  0
 20 21  1  0  0  0  0
 20 22  1  0  0  0  0
 20 52  1  0  0  0  0
 21 53  1  0  0  0  0
 21 54  1  0  0  0  0
 21 55  1  0  0  0  0
 22 56  1  0  0  0  0
 22 57  1  0  0  0  0
 22 58  1  0  0  0  0
 24 27  2  0  0  0  0
 24 59  1  0  0  0  0
 25 26  1  0  0  0  0
 25 60  1  0  0  0  0
 25 61  1  0  0  0  0
 26 62  1  0  0  0  0
 26 63  1  0  0  0  0
 26 64  1  0  0  0  0
M  END
>  <Mol_ID>
2479

>  <Formula>
C20H37N3O4

>  <MolWeight>
383.52548

>  <Cat>
S7386

>  <Name>
MG-101 (ALLN)

>  <Synonyms>
Calpain inhibitor-1, Ac-LLnL-CHO

>  <Target>
Cysteine Protease

>  <Form>
Oxalate

>  <CAS>
110044-82-1

>  <URL>
http://selleckchem.com/products/mg-101-alln.html

$$$$
