MGH-CP1
 OpenBabel08302521313D

 50 54  0  0  0  0  0  0  0  0999 V2000
    1.4551   -0.1955    0.0838 C   0  0  0  0  0  0  0  0  0  0  0  0
    0.5651   -1.2639    0.0708 C   0  0  0  0  0  0  0  0  0  0  0  0
   -0.8145   -1.0483   -0.0073 C   0  0  0  0  0  0  0  0  0  0  0  0
   -1.3578    0.2403   -0.0670 C   0  0  0  0  0  0  0  0  0  0  0  0
   -0.4532    1.3148   -0.0223 C   0  0  0  0  0  0  0  0  0  0  0  0
    0.9333    1.1004    0.0453 C   0  0  0  0  0  0  0  0  0  0  0  0
    2.8578   -0.3534    0.1116 N   0  0  0  0  0  0  0  0  0  0  0  0
    3.5582   -1.5506    0.1673 C   0  0  0  0  0  0  0  0  0  0  0  0
    5.0690   -1.3772    0.1189 C   0  0  0  0  0  0  0  0  0  0  0  0
    5.7713   -2.3194   -1.2686 S   0  0  0  0  0  0  0  0  0  0  0  0
    3.0665   -2.6734    0.2698 O   0  0  0  0  0  0  0  0  0  0  0  0
    5.1452   -1.4293   -2.5967 C   0  0  0  0  0  0  0  0  0  0  0  0
    4.7266   -0.1878   -2.6261 N   0  0  0  0  0  0  0  0  0  0  0  0
    4.3524    0.0828   -3.9269 N   0  0  0  0  0  0  0  0  0  0  0  0
    4.5586   -1.0055   -4.6363 C   0  0  0  0  0  0  0  0  0  0  0  0
    5.0487   -1.9873   -3.8323 N   0  0  0  0  0  0  0  0  0  0  0  0
   -2.8706    0.4747   -0.2098 C   0  0  3  0  0  0  0  0  0  0  0  0
   -3.6858   -0.8529   -0.3189 C   0  0  0  0  0  0  0  0  0  0  0  0
   -3.1634    1.3017   -1.4961 C   0  0  0  0  0  0  0  0  0  0  0  0
   -3.4281    1.2580    1.0124 C   0  0  0  0  0  0  0  0  0  0  0  0
   -5.1888   -0.5895   -0.4789 C   0  0  3  0  0  0  0  0  0  0  0  0
   -4.6706    1.5692   -1.6533 C   0  0  3  0  0  0  0  0  0  0  0  0
   -4.9379    1.5262    0.8531 C   0  0  3  0  0  0  0  0  0  0  0  0
   -5.4185    0.2324   -1.7536 C   0  0  0  0  0  0  0  0  0  0  0  0
   -5.6892    0.1910    0.7432 C   0  0  0  0  0  0  0  0  0  0  0  0
   -5.1767    2.3453   -0.4264 C   0  0  0  0  0  0  0  0  0  0  0  0
    0.9011   -2.2934    0.0913 H   0  0  0  0  0  0  0  0  0  0  0  0
   -1.4367   -1.9380   -0.0351 H   0  0  0  0  0  0  0  0  0  0  0  0
   -0.8128    2.3415   -0.0524 H   0  0  0  0  0  0  0  0  0  0  0  0
    1.5907    1.9657    0.0592 H   0  0  0  0  0  0  0  0  0  0  0  0
    3.3957    0.4983   -0.0012 H   0  0  0  0  0  0  0  0  0  0  0  0
    5.3647   -0.3262    0.0554 H   0  0  0  0  0  0  0  0  0  0  0  0
    5.4737   -1.7765    1.0547 H   0  0  0  0  0  0  0  0  0  0  0  0
    4.3783   -1.1274   -5.6953 H   0  0  0  0  0  0  0  0  0  0  0  0
    5.2962   -2.9325   -4.0833 H   0  0  0  0  0  0  0  0  0  0  0  0
   -3.3395   -1.4437   -1.1777 H   0  0  0  0  0  0  0  0  0  0  0  0
   -3.5336   -1.4689    0.5777 H   0  0  0  0  0  0  0  0  0  0  0  0
   -2.6402    2.2660   -1.4722 H   0  0  0  0  0  0  0  0  0  0  0  0
   -2.7866    0.7696   -2.3799 H   0  0  0  0  0  0  0  0  0  0  0  0
   -3.2486    0.6933    1.9372 H   0  0  0  0  0  0  0  0  0  0  0  0
   -2.9097    2.2179    1.1330 H   0  0  0  0  0  0  0  0  0  0  0  0
   -5.7225   -1.5437   -0.5532 H   0  0  0  0  0  0  0  0  0  0  0  0
   -4.8461    2.1575   -2.5609 H   0  0  0  0  0  0  0  0  0  0  0  0
   -5.3063    2.0834    1.7217 H   0  0  0  0  0  0  0  0  0  0  0  0
   -6.4912    0.4106   -1.8963 H   0  0  0  0  0  0  0  0  0  0  0  0
   -5.0692   -0.3278   -2.6298 H   0  0  0  0  0  0  0  0  0  0  0  0
   -6.7676    0.3703    0.6556 H   0  0  0  0  0  0  0  0  0  0  0  0
   -5.5380   -0.4008    1.6545 H   0  0  0  0  0  0  0  0  0  0  0  0
   -4.6628    3.3110   -0.3548 H   0  0  0  0  0  0  0  0  0  0  0  0
   -6.2467    2.5609   -0.5378 H   0  0  0  0  0  0  0  0  0  0  0  0
  1  2  2  0  0  0  0
  1  7  1  0  0  0  0
  2  3  1  0  0  0  0
  2 27  1  0  0  0  0
  3  4  2  0  0  0  0
  3 28  1  0  0  0  0
  4  5  1  0  0  0  0
  4 17  1  0  0  0  0
  5  6  2  0  0  0  0
  5 29  1  0  0  0  0
  6  1  1  0  0  0  0
  6 30  1  0  0  0  0
  7  8  1  0  0  0  0
  7 31  1  0  0  0  0
  8  9  1  0  0  0  0
  8 11  2  0  0  0  0
  9 10  1  0  0  0  0
  9 32  1  0  0  0  0
  9 33  1  0  0  0  0
 10 12  1  0  0  0  0
 12 13  2  0  0  0  0
 13 14  1  0  0  0  0
 14 15  2  0  0  0  0
 15 16  1  0  0  0  0
 15 34  1  0  0  0  0
 16 12  1  0  0  0  0
 16 35  1  0  0  0  0
 17 18  1  0  0  0  0
 17 19  1  0  0  0  0
 17 20  1  0  0  0  0
 18 21  1  0  0  0  0
 18 36  1  0  0  0  0
 18 37  1  0  0  0  0
 19 22  1  0  0  0  0
 19 38  1  0  0  0  0
 19 39  1  0  0  0  0
 20 23  1  0  0  0  0
 20 40  1  0  0  0  0
 20 41  1  0  0  0  0
 21 24  1  0  0  0  0
 21 25  1  0  0  0  0
 21 42  1  0  0  0  0
 22 26  1  0  0  0  0
 22 24  1  0  0  0  0
 22 43  1  0  0  0  0
 23 25  1  0  0  0  0
 23 26  1  0  0  0  0
 23 44  1  0  0  0  0
 24 45  1  0  0  0  0
 24 46  1  0  0  0  0
 25 47  1  0  0  0  0
 25 48  1  0  0  0  0
 26 49  1  0  0  0  0
 26 50  1  0  0  0  0
M  END
>  <Mol_ID>
5811

>  <Formula>
C20H24N4OS

>  <MolWeight>
368.49576

>  <Cat>
S9735

>  <Name>
MGH-CP1

>  <Synonyms>
N/A

>  <Target>
TEAD

>  <Form>
Free Base

>  <CAS>
896657-58-2

>  <URL>
http://www.selleckchem.com/products/mgh-cp1.html

$$$$
