Midodrine hydrochloride
 OpenBabel08302520343D

 36 36  0  0  0  0  0  0  0  0999 V2000
    2.9045    1.4670   -2.1909 C   0  0  0  0  0  0  0  0  0  0  0  0
    1.8170    2.5342   -2.3577 C   0  0  0  0  0  0  0  0  0  0  0  0
    3.8717    1.6333   -1.4518 O   0  0  0  0  0  0  0  0  0  0  0  0
    2.6656    0.2744   -2.8497 N   0  0  0  0  0  0  0  0  0  0  0  0
    3.5812   -0.8722   -2.8141 C   0  0  0  0  0  0  0  0  0  0  0  0
    3.7171   -1.4752   -1.3956 C   0  0  3  0  0  0  0  0  0  0  0  0
    2.4044   -1.9147   -0.9757 O   0  0  0  0  0  0  0  0  0  0  0  0
    4.6907   -2.6395   -1.3192 C   0  0  0  0  0  0  0  0  0  0  0  0
    6.0725   -2.5609   -1.0665 C   0  0  0  0  0  0  0  0  0  0  0  0
    6.8221   -3.7522   -0.9908 C   0  0  0  0  0  0  0  0  0  0  0  0
    6.2416   -5.0126   -1.1179 C   0  0  0  0  0  0  0  0  0  0  0  0
    4.8820   -5.1102   -1.3517 C   0  0  0  0  0  0  0  0  0  0  0  0
    4.1373   -3.9370   -1.4926 C   0  0  0  0  0  0  0  0  0  0  0  0
    4.1585   -6.2670   -1.4297 O   0  0  0  0  0  0  0  0  0  0  0  0
    4.8674   -7.4764   -1.1919 C   0  0  0  0  0  0  0  0  0  0  0  0
    6.9040   -1.5006   -0.8578 O   0  0  0  0  0  0  0  0  0  0  0  0
    6.4436   -0.1733   -0.7378 C   0  0  0  0  0  0  0  0  0  0  0  0
    1.2511    2.5025   -3.7205 N   0  0  0  0  0  0  0  0  0  0  0  0
    1.0251    2.3527   -1.6235 H   0  0  0  0  0  0  0  0  0  0  0  0
    2.2557    3.5179   -2.1650 H   0  0  0  0  0  0  0  0  0  0  0  0
    1.8991    0.2979   -3.5172 H   0  0  0  0  0  0  0  0  0  0  0  0
    3.1468   -1.6112   -3.4968 H   0  0  0  0  0  0  0  0  0  0  0  0
    4.5506   -0.5699   -3.2193 H   0  0  0  0  0  0  0  0  0  0  0  0
    3.9848   -0.7220   -0.6601 H   0  0  0  0  0  0  0  0  0  0  0  0
    1.7765   -1.2529   -1.3128 H   0  0  0  0  0  0  0  0  0  0  0  0
    7.8924   -3.6925   -0.7935 H   0  0  0  0  0  0  0  0  0  0  0  0
    6.8781   -5.8825   -1.0083 H   0  0  0  0  0  0  0  0  0  0  0  0
    3.0721   -4.0448   -1.6978 H   0  0  0  0  0  0  0  0  0  0  0  0
    5.5022   -7.7109   -2.0530 H   0  0  0  0  0  0  0  0  0  0  0  0
    5.4528   -7.4414   -0.2679 H   0  0  0  0  0  0  0  0  0  0  0  0
    4.1335   -8.2807   -1.0788 H   0  0  0  0  0  0  0  0  0  0  0  0
    5.9822    0.1610   -1.6663 H   0  0  0  0  0  0  0  0  0  0  0  0
    5.7956   -0.0497    0.1331 H   0  0  0  0  0  0  0  0  0  0  0  0
    7.3198    0.4613   -0.5742 H   0  0  0  0  0  0  0  0  0  0  0  0
    0.6249    3.3079   -3.8159 H   0  0  0  0  0  0  0  0  0  0  0  0
    2.0060    2.6822   -4.3788 H   0  0  0  0  0  0  0  0  0  0  0  0
  1  2  1  0  0  0  0
  1  3  2  0  0  0  0
  1  4  1  0  0  0  0
  2 18  1  0  0  0  0
  2 19  1  0  0  0  0
  2 20  1  0  0  0  0
  4  5  1  0  0  0  0
  4 21  1  0  0  0  0
  5  6  1  0  0  0  0
  5 22  1  0  0  0  0
  5 23  1  0  0  0  0
  6  7  1  0  0  0  0
  6  8  1  0  0  0  0
  6 24  1  0  0  0  0
  7 25  1  0  0  0  0
  8  9  2  0  0  0  0
  8 13  1  0  0  0  0
  9 10  1  0  0  0  0
  9 16  1  0  0  0  0
 10 11  2  0  0  0  0
 10 26  1  0  0  0  0
 11 12  1  0  0  0  0
 11 27  1  0  0  0  0
 12 13  2  0  0  0  0
 12 14  1  0  0  0  0
 13 28  1  0  0  0  0
 14 15  1  0  0  0  0
 15 29  1  0  0  0  0
 15 30  1  0  0  0  0
 15 31  1  0  0  0  0
 16 17  1  0  0  0  0
 17 32  1  0  0  0  0
 17 33  1  0  0  0  0
 17 34  1  0  0  0  0
 18 35  1  0  0  0  0
 18 36  1  0  0  0  0
M  END
>  <Mol_ID>
3380

>  <Formula>
C12H19ClN2O4

>  <MolWeight>
290.74326

>  <Cat>
S5734

>  <Name>
Midodrine hydrochloride

>  <Synonyms>
N/A

>  <Target>
Adrenergic Receptor

>  <Form>
Hydrochloride

>  <CAS>
43218-56-0

>  <URL>
http://www.selleckchem.com/products/midodrine-hydrochloride.html

$$$$
