Mifobate
 OpenBabel08302521323D

 38 38  0  0  0  0  0  0  0  0999 V2000
    0.2541   -1.4322    1.9732 P   0  0  0  0  0  0  0  0  0  0  0  0
   -1.1485   -1.4323    1.3650 O   0  0  0  0  0  0  0  0  0  0  0  0
    1.0898   -0.0825    1.5401 O   0  0  0  0  0  0  0  0  0  0  0  0
    0.8553   -2.2614    0.5789 O   0  0  0  0  0  0  0  0  0  0  0  0
   -0.3472   -0.6031    3.3674 O   0  0  0  0  0  0  0  0  0  0  0  0
    2.4047   -0.0187    2.1281 C   0  0  3  0  0  0  0  0  0  0  0  0
    3.2673   -1.5086    1.5076 P   0  0  0  0  0  0  0  0  0  0  0  0
    4.4576   -0.6883    1.0016 O   0  0  0  0  0  0  0  0  0  0  0  0
    3.5292   -2.0310    3.0550 O   0  0  0  0  0  0  0  0  0  0  0  0
    4.8182   -1.8657    3.6276 C   0  0  0  0  0  0  0  0  0  0  0  0
    4.0829   -2.9170    0.9210 O   0  0  0  0  0  0  0  0  0  0  0  0
    3.3373   -3.9846    0.3917 C   0  0  0  0  0  0  0  0  0  0  0  0
    3.0088    1.3820    1.9781 C   0  0  0  0  0  0  0  0  0  0  0  0
    2.3267    2.4411    1.3684 C   0  0  0  0  0  0  0  0  0  0  0  0
    2.9450    3.6914    1.1964 C   0  0  0  0  0  0  0  0  0  0  0  0
    4.2539    3.8966    1.6251 C   0  0  0  0  0  0  0  0  0  0  0  0
    4.9323    2.8722    2.2766 C   0  0  0  0  0  0  0  0  0  0  0  0
    4.3001    1.6422    2.4747 C   0  0  0  0  0  0  0  0  0  0  0  0
    0.4060   -1.8229   -0.7040 C   0  0  0  0  0  0  0  0  0  0  0  0
   -1.2410    0.4897    3.2408 C   0  0  0  0  0  0  0  0  0  0  0  0
    2.2510   -0.1229    3.2103 H   0  0  0  0  0  0  0  0  0  0  0  0
    5.5926   -1.6651    2.8829 H   0  0  0  0  0  0  0  0  0  0  0  0
    4.7835   -1.0419    4.3458 H   0  0  0  0  0  0  0  0  0  0  0  0
    5.0856   -2.7805    4.1611 H   0  0  0  0  0  0  0  0  0  0  0  0
    2.7847   -4.4941    1.1828 H   0  0  0  0  0  0  0  0  0  0  0  0
    2.6725   -3.6392   -0.3987 H   0  0  0  0  0  0  0  0  0  0  0  0
    4.0409   -4.6928   -0.0579 H   0  0  0  0  0  0  0  0  0  0  0  0
    1.3090    2.3167    1.0094 H   0  0  0  0  0  0  0  0  0  0  0  0
    2.4085    4.4962    0.7034 H   0  0  0  0  0  0  0  0  0  0  0  0
    4.7498    4.8482    1.4472 H   0  0  0  0  0  0  0  0  0  0  0  0
    5.9607    3.0125    2.5940 H   0  0  0  0  0  0  0  0  0  0  0  0
    4.8782    0.8599    2.9578 H   0  0  0  0  0  0  0  0  0  0  0  0
   -0.6549   -2.0438   -0.8462 H   0  0  0  0  0  0  0  0  0  0  0  0
    0.5951   -0.7547   -0.8345 H   0  0  0  0  0  0  0  0  0  0  0  0
    0.9625   -2.3702   -1.4687 H   0  0  0  0  0  0  0  0  0  0  0  0
   -2.0909    0.2688    2.5917 H   0  0  0  0  0  0  0  0  0  0  0  0
   -1.6406    0.7018    4.2386 H   0  0  0  0  0  0  0  0  0  0  0  0
   -0.7100    1.3740    2.8886 H   0  0  0  0  0  0  0  0  0  0  0  0
  1  2  2  0  0  0  0
  1  3  1  0  0  0  0
  1  4  1  0  0  0  0
  1  5  1  0  0  0  0
  3  6  1  0  0  0  0
  4 19  1  0  0  0  0
  5 20  1  0  0  0  0
  6  7  1  0  0  0  0
  6 13  1  0  0  0  0
  6 21  1  0  0  0  0
  7  8  2  0  0  0  0
  7  9  1  0  0  0  0
  7 11  1  0  0  0  0
  9 10  1  0  0  0  0
 10 22  1  0  0  0  0
 10 23  1  0  0  0  0
 10 24  1  0  0  0  0
 11 12  1  0  0  0  0
 12 25  1  0  0  0  0
 12 26  1  0  0  0  0
 12 27  1  0  0  0  0
 13 14  2  0  0  0  0
 13 18  1  0  0  0  0
 14 15  1  0  0  0  0
 14 28  1  0  0  0  0
 15 16  2  0  0  0  0
 15 29  1  0  0  0  0
 16 17  1  0  0  0  0
 16 30  1  0  0  0  0
 17 18  2  0  0  0  0
 17 31  1  0  0  0  0
 18 32  1  0  0  0  0
 19 33  1  0  0  0  0
 19 34  1  0  0  0  0
 19 35  1  0  0  0  0
 20 36  1  0  0  0  0
 20 37  1  0  0  0  0
 20 38  1  0  0  0  0
M  END
>  <Mol_ID>
6183

>  <Formula>
C11H17ClO7P2

>  <MolWeight>
358.649002

>  <Cat>
S0773

>  <Name>
Mifobate

>  <Synonyms>
SR-202

>  <Target>
PPAR

>  <Form>
free base

>  <CAS>
76541-72-5

>  <URL>
http://www.selleckchem.com/products/mifobate.html

$$$$
