Miglitol.cdx
 OpenBabel08302521453D

 31 31  0  0  0  0  0  0  0  0999 V2000
   -1.2522    0.0768    0.2935 C   0  0  1  0  0  0  0  0  0  0  0  0
   -1.1937   -1.3606   -0.2324 C   0  0  0  0  0  0  0  0  0  0  0  0
   -0.0080   -2.0946    0.2313 N   0  0  0  0  0  0  0  0  0  0  0  0
    1.2714   -1.4058   -0.0930 C   0  0  1  0  0  0  0  0  0  0  0  0
    1.2565    0.0870    0.3401 C   0  0  2  0  0  0  0  0  0  0  0  0
    0.0055    0.8147   -0.1739 C   0  0  2  0  0  0  0  0  0  0  0  0
    2.4466    0.7318   -0.1401 O   0  0  0  0  0  0  0  0  0  0  0  0
   -2.4383    0.7240   -0.1795 O   0  0  0  0  0  0  0  0  0  0  0  0
    0.0086    2.1787    0.2660 O   0  0  0  0  0  0  0  0  0  0  0  0
    2.5321   -2.0780    0.5340 C   0  0  0  0  0  0  0  0  0  0  0  0
    2.5135   -2.0759    1.9604 O   0  0  0  0  0  0  0  0  0  0  0  0
   -0.0688   -3.5161   -0.1818 C   0  0  0  0  0  0  0  0  0  0  0  0
   -0.0092   -3.8508   -1.6892 C   0  0  0  0  0  0  0  0  0  0  0  0
   -1.1787   -3.4391   -2.3938 O   0  0  0  0  0  0  0  0  0  0  0  0
   -1.3161    0.0828    1.3885 H   0  0  0  0  0  0  0  0  0  0  0  0
   -2.1084   -1.8769    0.0867 H   0  0  0  0  0  0  0  0  0  0  0  0
   -1.2328   -1.3145   -1.3268 H   0  0  0  0  0  0  0  0  0  0  0  0
    1.4194   -1.4240   -1.1816 H   0  0  0  0  0  0  0  0  0  0  0  0
    1.2830    0.1737    1.4334 H   0  0  0  0  0  0  0  0  0  0  0  0
    0.0263    0.8718   -1.2689 H   0  0  0  0  0  0  0  0  0  0  0  0
    2.2036    1.2893   -0.9018 H   0  0  0  0  0  0  0  0  0  0  0  0
   -2.2818    1.0128   -1.0959 H   0  0  0  0  0  0  0  0  0  0  0  0
   -0.1913    2.1842    1.2199 H   0  0  0  0  0  0  0  0  0  0  0  0
    2.6385   -3.1122    0.1976 H   0  0  0  0  0  0  0  0  0  0  0  0
    3.4462   -1.5633    0.2102 H   0  0  0  0  0  0  0  0  0  0  0  0
    2.8202   -1.2082    2.2695 H   0  0  0  0  0  0  0  0  0  0  0  0
    0.7288   -4.0704    0.3232 H   0  0  0  0  0  0  0  0  0  0  0  0
   -0.9981   -3.9366    0.2229 H   0  0  0  0  0  0  0  0  0  0  0  0
    0.8579   -3.3893   -2.1711 H   0  0  0  0  0  0  0  0  0  0  0  0
    0.0826   -4.9326   -1.8207 H   0  0  0  0  0  0  0  0  0  0  0  0
   -1.9274   -3.9482   -2.0381 H   0  0  0  0  0  0  0  0  0  0  0  0
  1  2  1  0  0  0  0
  1  8  1  0  0  0  0
  1 15  1  1  0  0  0
  2  3  1  0  0  0  0
  2 16  1  0  0  0  0
  2 17  1  0  0  0  0
  3  4  1  0  0  0  0
  3 12  1  0  0  0  0
  4  5  1  0  0  0  0
  4 10  1  0  0  0  0
  4 18  1  6  0  0  0
  5  6  1  0  0  0  0
  5  7  1  0  0  0  0
  5 19  1  1  0  0  0
  6  1  1  0  0  0  0
  6  9  1  0  0  0  0
  6 20  1  6  0  0  0
  7 21  1  0  0  0  0
  8 22  1  0  0  0  0
  9 23  1  0  0  0  0
 10 11  1  0  0  0  0
 10 24  1  0  0  0  0
 10 25  1  0  0  0  0
 11 26  1  0  0  0  0
 12 13  1  0  0  0  0
 12 27  1  0  0  0  0
 12 28  1  0  0  0  0
 13 14  1  0  0  0  0
 13 29  1  0  0  0  0
 13 30  1  0  0  0  0
 14 31  1  0  0  0  0
M  END
>  <Mol_ID>
937

>  <Formula>
C8H17NO5

>  <MolWeight>
207.22428

>  <Cat>
S2589

>  <Name>
Miglitol

>  <Synonyms>
BAY-M-1099,Glyset

>  <Target>
Carbohydrate Metabolism

>  <Form>
free base

>  <CAS>
72432-03-2

>  <URL>
http://selleckchem.com/products/miglitol-glyset.html

$$$$
