MINTEZOL (thiabendazole).cdx
 OpenBabel08302521043D

 21 23  0  0  0  0  0  0  0  0999 V2000
    1.2069   -0.3187   -0.8894 N   0  0  0  0  0  0  0  0  0  0  0  0
    0.0833   -0.9613   -0.6514 C   0  0  0  0  0  0  0  0  0  0  0  0
   -0.9458   -0.2854    0.5452 S   0  0  0  0  0  0  0  0  0  0  0  0
    0.2039    0.9605    0.7988 C   0  0  0  0  0  0  0  0  0  0  0  0
    1.2817    0.7753   -0.0418 C   0  0  0  0  0  0  0  0  0  0  0  0
    2.4630    1.6788   -0.0460 C   0  0  0  0  0  0  0  0  0  0  0  0
    3.4982    1.5480   -0.9346 N   0  0  0  0  0  0  0  0  0  0  0  0
    4.4238    2.5221   -0.6617 C   0  0  0  0  0  0  0  0  0  0  0  0
    3.8876    3.2010    0.4276 C   0  0  0  0  0  0  0  0  0  0  0  0
    2.6672    2.6805    0.7848 N   0  0  0  0  0  0  0  0  0  0  0  0
    5.6453    2.8554   -1.2489 C   0  0  0  0  0  0  0  0  0  0  0  0
    6.3460    3.9213   -0.6721 C   0  0  0  0  0  0  0  0  0  0  0  0
    5.8431    4.6096    0.4355 C   0  0  0  0  0  0  0  0  0  0  0  0
    4.6085    4.2607    0.9967 C   0  0  0  0  0  0  0  0  0  0  0  0
   -0.1880   -1.8681   -1.1763 H   0  0  0  0  0  0  0  0  0  0  0  0
    0.0491    1.7474    1.5241 H   0  0  0  0  0  0  0  0  0  0  0  0
    3.5433    0.8429   -1.6561 H   0  0  0  0  0  0  0  0  0  0  0  0
    6.0382    2.3202   -2.1059 H   0  0  0  0  0  0  0  0  0  0  0  0
    7.3045    4.2185   -1.0932 H   0  0  0  0  0  0  0  0  0  0  0  0
    6.4143    5.4270    0.8688 H   0  0  0  0  0  0  0  0  0  0  0  0
    4.2112    4.7901    1.8550 H   0  0  0  0  0  0  0  0  0  0  0  0
  1  2  2  0  0  0  0
  2  3  1  0  0  0  0
  2 15  1  0  0  0  0
  3  4  1  0  0  0  0
  4  5  2  0  0  0  0
  4 16  1  0  0  0  0
  5  1  1  0  0  0  0
  5  6  1  0  0  0  0
  6  7  1  0  0  0  0
  7  8  1  0  0  0  0
  7 17  1  0  0  0  0
  8  9  2  0  0  0  0
  8 11  1  0  0  0  0
  9 10  1  0  0  0  0
 10  6  2  0  0  0  0
 11 12  2  0  0  0  0
 11 18  1  0  0  0  0
 12 13  1  0  0  0  0
 12 19  1  0  0  0  0
 13 14  2  0  0  0  0
 13 20  1  0  0  0  0
 14  9  1  0  0  0  0
 14 21  1  0  0  0  0
M  END
>  <Mol_ID>
422

>  <Formula>
C10H7N3S

>  <MolWeight>
201.24768

>  <Cat>
S1739

>  <Name>
Thiabendazole

>  <Synonyms>
N/A

>  <Target>
P450 (e.g. CYP17)

>  <Form>
free base

>  <CAS>
148-79-8

>  <URL>
http://selleckchem.com/products/Thiabendazole.html

$$$$
