Mirabegron.cdx
 OpenBabel08302522033D

 52 54  0  0  0  0  0  0  0  0999 V2000
   -5.9462   -5.6358    1.5443 S   0  0  0  0  0  0  0  0  0  0  0  0
   -5.0888   -5.1370    2.9418 C   0  0  0  0  0  0  0  0  0  0  0  0
   -4.5895   -3.9283    2.8959 N   0  0  0  0  0  0  0  0  0  0  0  0
   -4.8854   -3.3317    1.6770 C   0  0  0  0  0  0  0  0  0  0  0  0
   -5.6260   -4.1184    0.8158 C   0  0  0  0  0  0  0  0  0  0  0  0
   -2.8872   -1.7955    1.4780 C   0  0  0  0  0  0  0  0  0  0  0  0
   -4.3971   -1.9446    1.4295 C   0  0  0  0  0  0  0  0  0  0  0  0
   -2.3422   -1.0276    0.6832 O   0  0  0  0  0  0  0  0  0  0  0  0
   -2.2414   -2.5170    2.4725 N   0  0  0  0  0  0  0  0  0  0  0  0
   -0.8557   -2.4893    2.7442 C   0  0  0  0  0  0  0  0  0  0  0  0
   -0.0328   -1.4525    2.3099 C   0  0  0  0  0  0  0  0  0  0  0  0
    1.3488   -1.4999    2.5079 C   0  0  0  0  0  0  0  0  0  0  0  0
    1.9405   -2.5798    3.1675 C   0  0  0  0  0  0  0  0  0  0  0  0
    1.1106   -3.5950    3.6629 C   0  0  0  0  0  0  0  0  0  0  0  0
   -0.2810   -3.5422    3.4621 C   0  0  0  0  0  0  0  0  0  0  0  0
    3.4477   -2.6583    3.2764 C   0  0  0  0  0  0  0  0  0  0  0  0
    4.0539   -1.4907    4.0702 C   0  0  0  0  0  0  0  0  0  0  0  0
    5.5185   -1.5537    4.0696 N   0  0  0  0  0  0  0  0  0  0  0  0
    6.0931   -0.4276    4.8274 C   0  0  0  0  0  0  0  0  0  0  0  0
    7.6376   -0.5209    4.9322 C   0  0  1  0  0  0  0  0  0  0  0  0
    8.3187    0.6052    5.6979 C   0  0  0  0  0  0  0  0  0  0  0  0
    7.6232    1.6613    6.3058 C   0  0  0  0  0  0  0  0  0  0  0  0
    8.3053    2.6627    7.0040 C   0  0  0  0  0  0  0  0  0  0  0  0
    9.6925    2.6262    7.1062 C   0  0  0  0  0  0  0  0  0  0  0  0
   10.4020    1.5901    6.5069 C   0  0  0  0  0  0  0  0  0  0  0  0
    9.7219    0.5905    5.8070 C   0  0  0  0  0  0  0  0  0  0  0  0
    7.9583   -1.7731    5.5640 O   0  0  0  0  0  0  0  0  0  0  0  0
   -4.9128   -5.9488    3.9946 N   0  0  0  0  0  0  0  0  0  0  0  0
   -5.9811   -3.8848   -0.1783 H   0  0  0  0  0  0  0  0  0  0  0  0
   -4.7246   -1.6209    0.4327 H   0  0  0  0  0  0  0  0  0  0  0  0
   -4.8329   -1.2539    2.1596 H   0  0  0  0  0  0  0  0  0  0  0  0
   -2.7939   -3.2378    2.9302 H   0  0  0  0  0  0  0  0  0  0  0  0
   -0.4370   -0.5804    1.8055 H   0  0  0  0  0  0  0  0  0  0  0  0
    1.9544   -0.6877    2.1142 H   0  0  0  0  0  0  0  0  0  0  0  0
    1.5396   -4.4485    4.1841 H   0  0  0  0  0  0  0  0  0  0  0  0
   -0.8923   -4.3607    3.8350 H   0  0  0  0  0  0  0  0  0  0  0  0
    3.7421   -3.6096    3.7367 H   0  0  0  0  0  0  0  0  0  0  0  0
    3.8556   -2.6703    2.2566 H   0  0  0  0  0  0  0  0  0  0  0  0
    3.7471   -0.5384    3.6219 H   0  0  0  0  0  0  0  0  0  0  0  0
    3.6676   -1.5102    5.0966 H   0  0  0  0  0  0  0  0  0  0  0  0
    5.8474   -2.4224    4.4995 H   0  0  0  0  0  0  0  0  0  0  0  0
    5.8128    0.5148    4.3426 H   0  0  0  0  0  0  0  0  0  0  0  0
    5.6697   -0.4415    5.8401 H   0  0  0  0  0  0  0  0  0  0  0  0
    8.0555   -0.5454    3.9174 H   0  0  0  0  0  0  0  0  0  0  0  0
    6.5404    1.7348    6.2512 H   0  0  0  0  0  0  0  0  0  0  0  0
    7.7490    3.4746    7.4671 H   0  0  0  0  0  0  0  0  0  0  0  0
   10.2209    3.4063    7.6492 H   0  0  0  0  0  0  0  0  0  0  0  0
   11.4863    1.5601    6.5802 H   0  0  0  0  0  0  0  0  0  0  0  0
   10.2942   -0.2112    5.3417 H   0  0  0  0  0  0  0  0  0  0  0  0
    8.1500   -1.5810    6.4978 H   0  0  0  0  0  0  0  0  0  0  0  0
   -4.9385   -6.9468    3.8260 H   0  0  0  0  0  0  0  0  0  0  0  0
   -4.2138   -5.6574    4.6667 H   0  0  0  0  0  0  0  0  0  0  0  0
  1  2  1  0  0  0  0
  1  5  1  0  0  0  0
  2  3  2  0  0  0  0
  2 28  1  0  0  0  0
  3  4  1  0  0  0  0
  4  5  2  0  0  0  0
  4  7  1  0  0  0  0
  5 29  1  0  0  0  0
  6  7  1  0  0  0  0
  6  8  2  0  0  0  0
  6  9  1  0  0  0  0
  7 30  1  0  0  0  0
  7 31  1  0  0  0  0
  9 10  1  0  0  0  0
  9 32  1  0  0  0  0
 10 11  2  0  0  0  0
 10 15  1  0  0  0  0
 11 12  1  0  0  0  0
 11 33  1  0  0  0  0
 12 13  2  0  0  0  0
 12 34  1  0  0  0  0
 13 14  1  0  0  0  0
 13 16  1  0  0  0  0
 14 15  2  0  0  0  0
 14 35  1  0  0  0  0
 15 36  1  0  0  0  0
 16 17  1  0  0  0  0
 16 37  1  0  0  0  0
 16 38  1  0  0  0  0
 17 18  1  0  0  0  0
 17 39  1  0  0  0  0
 17 40  1  0  0  0  0
 18 19  1  0  0  0  0
 18 41  1  0  0  0  0
 19 20  1  0  0  0  0
 19 42  1  0  0  0  0
 19 43  1  0  0  0  0
 20 21  1  0  0  0  0
 20 27  1  0  0  0  0
 20 44  1  6  0  0  0
 21 22  2  0  0  0  0
 21 26  1  0  0  0  0
 22 23  1  0  0  0  0
 22 45  1  0  0  0  0
 23 24  2  0  0  0  0
 23 46  1  0  0  0  0
 24 25  1  0  0  0  0
 24 47  1  0  0  0  0
 25 26  2  0  0  0  0
 25 48  1  0  0  0  0
 26 49  1  0  0  0  0
 27 50  1  0  0  0  0
 28 51  1  0  0  0  0
 28 52  1  0  0  0  0
M  END
>  <Mol_ID>
1196

>  <Formula>
C21H24N4O2S

>  <MolWeight>
396.50586

>  <Cat>
S4009

>  <Name>
Mirabegron

>  <Synonyms>
YM 178

>  <Target>
Adrenergic Receptor

>  <Form>
free base

>  <CAS>
223673-61-8

>  <URL>
http://selleckchem.com/products/mirabegron-ym178.html

$$$$
