Mitonafide
 OpenBabel08302521333D

 38 40  0  0  0  0  0  0  0  0999 V2000
    2.1833   -2.3735   -0.0053 O   0  0  0  0  0  0  0  0  0  0  0  0
    2.1166    2.0427    1.2805 O   0  0  0  0  0  0  0  0  0  0  0  0
    3.7211   -0.0523    0.3523 C   0  0  0  0  0  0  0  0  0  0  0  0
    4.3739   -0.3630   -1.0195 C   0  0  0  0  0  0  0  0  0  0  0  0
    3.9247    0.4754   -2.1534 N   0  0  0  0  0  0  0  0  0  0  0  0
    4.2686    1.8868   -1.9698 C   0  0  0  0  0  0  0  0  0  0  0  0
    4.5197    0.0052   -3.4129 C   0  0  0  0  0  0  0  0  0  0  0  0
   -2.7890   -3.6728    0.0849 N   0  3  0  0  0  0  0  0  0  0  0  0
   -2.1606   -4.7452    0.1341 O   0  5  0  0  0  0  0  0  0  0  0  0
   -4.0215   -3.5833    0.0514 O   0  0  0  0  0  0  0  0  0  0  0  0
   -0.5427   -0.0487    0.2219 C   0  0  0  0  0  0  0  0  0  0  0  0
    0.1203   -1.2790    0.2002 C   0  0  0  0  0  0  0  0  0  0  0  0
    0.1573    1.1430    0.3896 C   0  0  0  0  0  0  0  0  0  0  0  0
   -1.9531    0.0015    0.0918 C   0  0  0  0  0  0  0  0  0  0  0  0
    1.6082   -1.2956    0.1587 C   0  0  0  0  0  0  0  0  0  0  0  0
   -0.6090   -2.4802    0.1345 C   0  0  0  0  0  0  0  0  0  0  0  0
    1.6041    1.0956    0.6966 C   0  0  0  0  0  0  0  0  0  0  0  0
   -0.4885    2.3790    0.2990 C   0  0  0  0  0  0  0  0  0  0  0  0
   -2.6800   -1.2025    0.0440 C   0  0  0  0  0  0  0  0  0  0  0  0
   -2.5905    1.2506   -0.0120 C   0  0  0  0  0  0  0  0  0  0  0  0
    2.2580   -0.0734    0.3412 N   0  0  0  0  0  0  0  0  0  0  0  0
   -2.0040   -2.4325    0.0944 C   0  0  0  0  0  0  0  0  0  0  0  0
   -1.8525    2.4331    0.0610 C   0  0  0  0  0  0  0  0  0  0  0  0
    4.0851    0.9175    0.7057 H   0  0  0  0  0  0  0  0  0  0  0  0
    4.0621   -0.7973    1.0835 H   0  0  0  0  0  0  0  0  0  0  0  0
    5.4640   -0.2922   -0.9075 H   0  0  0  0  0  0  0  0  0  0  0  0
    4.1572   -1.4104   -1.2608 H   0  0  0  0  0  0  0  0  0  0  0  0
    5.3535    2.0423   -1.9266 H   0  0  0  0  0  0  0  0  0  0  0  0
    3.8707    2.4838   -2.7984 H   0  0  0  0  0  0  0  0  0  0  0  0
    3.8299    2.2999   -1.0577 H   0  0  0  0  0  0  0  0  0  0  0  0
    5.5417    0.3781   -3.5571 H   0  0  0  0  0  0  0  0  0  0  0  0
    4.5550   -1.0880   -3.4725 H   0  0  0  0  0  0  0  0  0  0  0  0
    3.9103    0.3480   -4.2565 H   0  0  0  0  0  0  0  0  0  0  0  0
   -0.0773   -3.4329    0.1246 H   0  0  0  0  0  0  0  0  0  0  0  0
    0.0855    3.3084    0.3960 H   0  0  0  0  0  0  0  0  0  0  0  0
   -3.7645   -1.1690   -0.0231 H   0  0  0  0  0  0  0  0  0  0  0  0
   -3.6653    1.3091   -0.1584 H   0  0  0  0  0  0  0  0  0  0  0  0
   -2.3516    3.3896   -0.0526 H   0  0  0  0  0  0  0  0  0  0  0  0
  1 15  2  0  0  0  0
  2 17  2  0  0  0  0
  3  4  1  0  0  0  0
  3 21  1  0  0  0  0
  3 24  1  0  0  0  0
  3 25  1  0  0  0  0
  4  5  1  0  0  0  0
  4 26  1  0  0  0  0
  4 27  1  0  0  0  0
  5  6  1  0  0  0  0
  5  7  1  0  0  0  0
  6 28  1  0  0  0  0
  6 29  1  0  0  0  0
  6 30  1  0  0  0  0
  7 31  1  0  0  0  0
  7 32  1  0  0  0  0
  7 33  1  0  0  0  0
  8  9  1  0  0  0  0
  8 10  2  0  0  0  0
  8 22  1  0  0  0  0
 11 12  1  0  0  0  0
 11 13  2  0  0  0  0
 11 14  1  0  0  0  0
 12 15  1  0  0  0  0
 12 16  2  0  0  0  0
 13 17  1  0  0  0  0
 13 18  1  0  0  0  0
 14 19  1  0  0  0  0
 14 20  2  0  0  0  0
 15 21  1  0  0  0  0
 16 22  1  0  0  0  0
 16 34  1  0  0  0  0
 17 21  1  0  0  0  0
 18 23  2  0  0  0  0
 18 35  1  0  0  0  0
 19 22  2  0  0  0  0
 19 36  1  0  0  0  0
 20 23  1  0  0  0  0
 20 37  1  0  0  0  0
 23 38  1  0  0  0  0
M  CHG  2   8   1   9  -1
M  END
>  <Mol_ID>
6363

>  <Formula>
C16H15N3O4

>  <MolWeight>
313.308

>  <Cat>
E0828

>  <Name>
Mitonafide

>  <Target>
Bacterial

>  <Form>
free base

>  <CAS>
54824-17-8

>  <URL>
http://www.selleckchem.com/products/mitonafide.html

$$$$
