Mizoribine.cdx
 OpenBabel08302520433D

 31 32  0  0  0  0  0  0  0  0999 V2000
    0.5230    1.2513    0.3429 C   0  0  2  0  0  0  0  0  0  0  0  0
    1.6856    0.3865    0.2554 O   0  0  0  0  0  0  0  0  0  0  0  0
    1.2973   -0.8683   -0.3509 C   0  0  1  0  0  0  0  0  0  0  0  0
   -0.2245   -0.8650   -0.4119 C   0  0  2  0  0  0  0  0  0  0  0  0
   -0.5746    0.6142   -0.5137 C   0  0  1  0  0  0  0  0  0  0  0  0
    0.9314    2.5848   -0.0553 N   0  0  0  0  0  0  0  0  0  0  0  0
    1.9560   -0.9709   -1.7282 C   0  0  0  0  0  0  0  0  0  0  0  0
    3.3748   -0.9503   -1.5937 O   0  0  0  0  0  0  0  0  0  0  0  0
   -0.8007   -1.3786    0.8039 O   0  0  0  0  0  0  0  0  0  0  0  0
   -1.8949    0.8552   -0.0320 O   0  0  0  0  0  0  0  0  0  0  0  0
    0.8213    3.7240    0.7009 C   0  0  0  0  0  0  0  0  0  0  0  0
    1.5497    4.6829    0.0175 C   0  0  0  0  0  0  0  0  0  0  0  0
    2.0389    4.1623   -1.1705 N   0  0  0  0  0  0  0  0  0  0  0  0
    1.6387    2.9108   -1.1834 C   0  0  0  0  0  0  0  0  0  0  0  0
    0.1707    3.7481    1.8595 O   0  0  0  0  0  0  0  0  0  0  0  0
    1.8209    6.0367    0.4794 C   0  0  0  0  0  0  0  0  0  0  0  0
    2.7021    6.7250   -0.3032 N   0  0  0  0  0  0  0  0  0  0  0  0
    1.3400    6.5085    1.5038 O   0  0  0  0  0  0  0  0  0  0  0  0
    0.2250    1.2866    1.3971 H   0  0  0  0  0  0  0  0  0  0  0  0
    1.6839   -1.6598    0.3005 H   0  0  0  0  0  0  0  0  0  0  0  0
   -0.6380   -1.4571   -1.2333 H   0  0  0  0  0  0  0  0  0  0  0  0
   -0.5183    0.9527   -1.5537 H   0  0  0  0  0  0  0  0  0  0  0  0
    1.6787   -1.9072   -2.2214 H   0  0  0  0  0  0  0  0  0  0  0  0
    1.6785   -0.1374   -2.3789 H   0  0  0  0  0  0  0  0  0  0  0  0
    3.5993   -0.1771   -1.0408 H   0  0  0  0  0  0  0  0  0  0  0  0
   -0.1700   -1.2531    1.5381 H   0  0  0  0  0  0  0  0  0  0  0  0
   -2.1132    0.1091    0.5666 H   0  0  0  0  0  0  0  0  0  0  0  0
    1.8586    2.1958   -1.9647 H   0  0  0  0  0  0  0  0  0  0  0  0
    0.2350    4.6677    2.1988 H   0  0  0  0  0  0  0  0  0  0  0  0
    3.0231    7.6343   -0.0112 H   0  0  0  0  0  0  0  0  0  0  0  0
    3.1317    6.2519   -1.0894 H   0  0  0  0  0  0  0  0  0  0  0  0
  1  2  1  0  0  0  0
  1 19  1  1  0  0  0
  1  6  1  0  0  0  0
  2  3  1  0  0  0  0
  3  4  1  0  0  0  0
  3 20  1  1  0  0  0
  3  7  1  0  0  0  0
  4  5  1  0  0  0  0
  4  9  1  0  0  0  0
  4 21  1  6  0  0  0
  5  1  1  0  0  0  0
  5 10  1  0  0  0  0
  5 22  1  6  0  0  0
  6 11  1  0  0  0  0
  7  8  1  0  0  0  0
  7 23  1  0  0  0  0
  7 24  1  0  0  0  0
  8 25  1  0  0  0  0
  9 26  1  0  0  0  0
 10 27  1  0  0  0  0
 11 12  2  0  0  0  0
 11 15  1  0  0  0  0
 12 13  1  0  0  0  0
 12 16  1  0  0  0  0
 13 14  2  0  0  0  0
 14  6  1  0  0  0  0
 14 28  1  0  0  0  0
 15 29  1  0  0  0  0
 16 17  1  0  0  0  0
 16 18  2  0  0  0  0
 17 30  1  0  0  0  0
 17 31  1  0  0  0  0
M  END
>  <Mol_ID>
4019

>  <Formula>
C9H13N3O6

>  <MolWeight>
259.21602

>  <Cat>
S1384

>  <Name>
Mizoribine

>  <Synonyms>
Bredinin, NSC 289637,HE 69

>  <Target>
DNA/RNA Synthesis,HCV

>  <Form>
free base

>  <CAS>
50924-49-7

>  <URL>
http://selleckchem.com/products/Mizoribine.html

$$$$
