MK-0159
 OpenBabel08302521373D

 52 55  0  0  0  0  0  0  0  0999 V2000
    1.5869   -2.6573   -3.1456 C   0  0  0  0  0  0  0  0  0  0  0  0
    2.0441   -2.5547   -1.8174 N   0  0  0  0  0  0  0  0  0  0  0  0
    2.0397   -3.6234   -3.7703 O   0  0  0  0  0  0  0  0  0  0  0  0
    0.9051   -4.6877    2.7647 O   0  0  0  0  0  0  0  0  0  0  0  0
    0.3869   -6.0488    2.6708 C   0  0  0  0  0  0  0  0  0  0  0  0
   -0.5921   -6.4527    3.7929 C   0  0  0  0  0  0  0  0  0  0  0  0
   -1.6339   -7.3333    3.3230 O   0  0  0  0  0  0  0  0  0  0  0  0
   -1.2897   -8.7024    3.2229 C   0  0  0  0  0  0  0  0  0  0  0  0
    0.5337   -1.7957   -5.3443 C   0  0  0  0  0  0  0  0  0  0  0  0
    0.7024   -1.7131   -3.9217 C   0  0  0  0  0  0  0  0  0  0  0  0
   -0.1300   -0.7459   -5.9876 C   0  0  0  0  0  0  0  0  0  0  0  0
    0.8078   -2.7163   -6.4231 C   0  0  0  0  0  0  0  0  0  0  0  0
   -0.0315   -0.6888   -3.3103 C   0  0  0  0  0  0  0  0  0  0  0  0
   -0.7511    0.2953   -5.4207 N   0  0  0  0  0  0  0  0  0  0  0  0
   -0.1013   -0.9182   -7.3424 N   0  0  0  0  0  0  0  0  0  0  0  0
    0.4101   -2.1540   -7.6272 C   0  0  0  0  0  0  0  0  0  0  0  0
   -0.7601    0.2332   -4.0789 C   0  0  0  0  0  0  0  0  0  0  0  0
   -1.7072    1.1845   -3.5089 C   0  0  0  0  0  0  0  0  0  0  0  0
   -2.0486    2.4512   -3.9536 C   0  0  0  0  0  0  0  0  0  0  0  0
   -2.7480    0.7442   -2.2150 S   0  0  0  0  0  0  0  0  0  0  0  0
   -3.0679    3.0833   -3.2628 N   0  0  0  0  0  0  0  0  0  0  0  0
   -3.5188    2.2680   -2.3360 C   0  0  0  0  0  0  0  0  0  0  0  0
    1.5455   -1.9773   -0.5243 C   0  0  1  0  0  0  0  0  0  0  0  0
    0.3507   -2.7626   -0.0129 C   0  0  0  0  0  0  0  0  0  0  0  0
    2.5695   -1.9290    0.6642 C   0  0  0  0  0  0  0  0  0  0  0  0
    0.7626   -4.1855    0.3573 C   0  0  0  0  0  0  0  0  0  0  0  0
    2.5360   -3.0279    1.7913 C   0  0  0  0  0  0  0  0  0  0  0  0
    1.6720   -4.3009    1.5816 C   0  0  1  0  0  0  0  0  0  0  0  0
    2.6905   -3.3232   -1.6769 H   0  0  0  0  0  0  0  0  0  0  0  0
   -0.1460   -6.1819    1.7302 H   0  0  0  0  0  0  0  0  0  0  0  0
    1.2331   -6.7444    2.6661 H   0  0  0  0  0  0  0  0  0  0  0  0
   -0.0728   -6.9148    4.6409 H   0  0  0  0  0  0  0  0  0  0  0  0
   -1.1043   -5.5653    4.1754 H   0  0  0  0  0  0  0  0  0  0  0  0
   -0.5633   -8.8802    2.4253 H   0  0  0  0  0  0  0  0  0  0  0  0
   -0.9233   -9.0983    4.1746 H   0  0  0  0  0  0  0  0  0  0  0  0
   -2.1988   -9.2566    2.9665 H   0  0  0  0  0  0  0  0  0  0  0  0
    1.2058   -3.7195   -6.3381 H   0  0  0  0  0  0  0  0  0  0  0  0
   -0.0722   -0.6037   -2.2358 H   0  0  0  0  0  0  0  0  0  0  0  0
   -0.4877   -0.2568   -8.0066 H   0  0  0  0  0  0  0  0  0  0  0  0
    0.4275   -2.5175   -8.6507 H   0  0  0  0  0  0  0  0  0  0  0  0
   -1.5909    2.9527   -4.7978 H   0  0  0  0  0  0  0  0  0  0  0  0
   -4.3343    2.5353   -1.6796 H   0  0  0  0  0  0  0  0  0  0  0  0
    1.2659   -0.9447   -0.7445 H   0  0  0  0  0  0  0  0  0  0  0  0
   -0.0842   -2.2576    0.8586 H   0  0  0  0  0  0  0  0  0  0  0  0
   -0.4262   -2.8032   -0.7781 H   0  0  0  0  0  0  0  0  0  0  0  0
    3.5963   -1.7806    0.3071 H   0  0  0  0  0  0  0  0  0  0  0  0
    2.3386   -0.9977    1.2103 H   0  0  0  0  0  0  0  0  0  0  0  0
   -0.1647   -4.7414    0.4743 H   0  0  0  0  0  0  0  0  0  0  0  0
    1.3010   -4.6413   -0.4797 H   0  0  0  0  0  0  0  0  0  0  0  0
    2.2956   -2.5571    2.7574 H   0  0  0  0  0  0  0  0  0  0  0  0
    3.5786   -3.3573    1.9321 H   0  0  0  0  0  0  0  0  0  0  0  0
    2.3836   -5.1228    1.4304 H   0  0  0  0  0  0  0  0  0  0  0  0
  1  2  1  0  0  0  0
  1  3  2  0  0  0  0
  1 10  1  0  0  0  0
  2 29  1  0  0  0  0
  4  5  1  0  0  0  0
  5  6  1  0  0  0  0
  5 30  1  0  0  0  0
  5 31  1  0  0  0  0
  6  7  1  0  0  0  0
  6 32  1  0  0  0  0
  6 33  1  0  0  0  0
  7  8  1  0  0  0  0
  8 34  1  0  0  0  0
  8 35  1  0  0  0  0
  8 36  1  0  0  0  0
  9 10  2  0  0  0  0
  9 11  1  0  0  0  0
  9 12  1  0  0  0  0
 10 13  1  0  0  0  0
 11 14  2  0  0  0  0
 11 15  1  0  0  0  0
 12 16  2  0  0  0  0
 12 37  1  0  0  0  0
 13 17  2  0  0  0  0
 13 38  1  0  0  0  0
 14 17  1  0  0  0  0
 15 16  1  0  0  0  0
 15 39  1  0  0  0  0
 16 40  1  0  0  0  0
 17 18  1  0  0  0  0
 18 19  2  0  0  0  0
 18 20  1  0  0  0  0
 19 21  1  0  0  0  0
 19 41  1  0  0  0  0
 20 22  1  0  0  0  0
 21 22  2  0  0  0  0
 22 42  1  0  0  0  0
 23 24  1  0  0  0  0
 23 25  1  0  0  0  0
 23 43  1  6  0  0  0
 23  2  1  0  0  0  0
 24 26  1  0  0  0  0
 24 44  1  0  0  0  0
 24 45  1  0  0  0  0
 25 27  1  0  0  0  0
 25 46  1  0  0  0  0
 25 47  1  0  0  0  0
 26 28  1  0  0  0  0
 26 48  1  0  0  0  0
 26 49  1  0  0  0  0
 27 28  1  0  0  0  0
 27 50  1  0  0  0  0
 27 51  1  0  0  0  0
 28  4  1  0  0  0  0
 28 52  1  6  0  0  0
M  END
>  <Mol_ID>
7503

>  <Formula>
C20H24N4O3S

>  <MolWeight>
400.49456

>  <Cat>
E1276

>  <Name>
MK-0159

>  <Synonyms>
Compound 37

>  <Target>
CD markers

>  <Form>
free base

>  <CAS>
2641484-61-7

>  <URL>
https://www.selleckchem.com/products/mk-0159.html

$$$$
