MK-8245.cdx
 OpenBabel08302521293D

 45 48  0  0  0  0  0  0  0  0999 V2000
   -2.3761   -1.5744   -2.8362 N   0  0  0  0  0  0  0  0  0  0  0  0
   -1.3996   -1.1936   -3.6876 N   0  0  0  0  0  0  0  0  0  0  0  0
   -0.7001   -0.1071   -3.3196 N   0  0  0  0  0  0  0  0  0  0  0  0
   -1.3019    0.3248   -2.2207 N   0  0  0  0  0  0  0  0  0  0  0  0
   -2.3182   -0.5595   -1.9539 C   0  0  0  0  0  0  0  0  0  0  0  0
   -1.8108   -1.4968   -6.0498 C   0  0  0  0  0  0  0  0  0  0  0  0
   -1.0410   -1.9587   -4.8553 C   0  0  0  0  0  0  0  0  0  0  0  0
   -2.7135   -0.6742   -6.1008 O   0  0  0  0  0  0  0  0  0  0  0  0
   -1.4213   -2.1290   -7.1821 O   0  0  0  0  0  0  0  0  0  0  0  0
   -3.2139    0.6595    0.0551 O   0  0  0  0  0  0  0  0  0  0  0  0
   -4.2282    0.5298    0.9806 N   0  0  0  0  0  0  0  0  0  0  0  0
   -4.9005   -0.5837    0.6598 C   0  0  0  0  0  0  0  0  0  0  0  0
   -4.2931   -1.2065   -0.4594 C   0  0  0  0  0  0  0  0  0  0  0  0
   -3.2509   -0.3832   -0.8159 C   0  0  0  0  0  0  0  0  0  0  0  0
   -5.9887   -1.0749    1.3230 N   0  0  0  0  0  0  0  0  0  0  0  0
   -6.9420   -1.9914    0.7010 C   0  0  0  0  0  0  0  0  0  0  0  0
   -8.2718   -1.2763    0.4782 C   0  0  0  0  0  0  0  0  0  0  0  0
   -8.7879   -0.7486    1.8157 C   0  0  0  0  0  0  0  0  0  0  0  0
   -7.7731    0.2277    2.4191 C   0  0  0  0  0  0  0  0  0  0  0  0
   -6.4225   -0.4685    2.5887 C   0  0  0  0  0  0  0  0  0  0  0  0
  -10.0621   -0.1226    1.6036 O   0  0  0  0  0  0  0  0  0  0  0  0
  -10.9555   -0.1544    2.6463 C   0  0  0  0  0  0  0  0  0  0  0  0
  -11.8624    0.9100    2.7837 C   0  0  0  0  0  0  0  0  0  0  0  0
  -12.7403    0.9664    3.8763 C   0  0  0  0  0  0  0  0  0  0  0  0
  -12.7442   -0.0595    4.8192 C   0  0  0  0  0  0  0  0  0  0  0  0
  -11.9105   -1.1507    4.6321 C   0  0  0  0  0  0  0  0  0  0  0  0
  -11.0374   -1.2151    3.5528 C   0  0  0  0  0  0  0  0  0  0  0  0
  -11.9441   -2.1675    5.5027 F   0  0  0  0  0  0  0  0  0  0  0  0
  -11.9682    2.3020    1.4960 Br  0  0  0  0  0  0  0  0  0  0  0  0
    0.0301   -1.8192   -5.0330 H   0  0  0  0  0  0  0  0  0  0  0  0
   -1.2508   -3.0141   -4.6556 H   0  0  0  0  0  0  0  0  0  0  0  0
   -1.9929   -1.7433   -7.8816 H   0  0  0  0  0  0  0  0  0  0  0  0
   -4.5556   -2.1307   -0.9485 H   0  0  0  0  0  0  0  0  0  0  0  0
   -7.0891   -2.8533    1.3644 H   0  0  0  0  0  0  0  0  0  0  0  0
   -6.5965   -2.3988   -0.2530 H   0  0  0  0  0  0  0  0  0  0  0  0
   -9.0040   -1.9651    0.0414 H   0  0  0  0  0  0  0  0  0  0  0  0
   -8.1564   -0.4520   -0.2382 H   0  0  0  0  0  0  0  0  0  0  0  0
   -8.8606   -1.6175    2.4728 H   0  0  0  0  0  0  0  0  0  0  0  0
   -7.6728    1.1146    1.7808 H   0  0  0  0  0  0  0  0  0  0  0  0
   -8.1293    0.5891    3.3911 H   0  0  0  0  0  0  0  0  0  0  0  0
   -5.6899    0.2365    2.9983 H   0  0  0  0  0  0  0  0  0  0  0  0
   -6.5182   -1.2666    3.3367 H   0  0  0  0  0  0  0  0  0  0  0  0
  -13.4239    1.8033    3.9988 H   0  0  0  0  0  0  0  0  0  0  0  0
  -13.4040   -0.0289    5.6801 H   0  0  0  0  0  0  0  0  0  0  0  0
  -10.4591   -2.1236    3.4482 H   0  0  0  0  0  0  0  0  0  0  0  0
  1  2  1  0  0  0  0
  1  5  2  0  0  0  0
  2  3  1  0  0  0  0
  2  7  1  0  0  0  0
  3  4  2  0  0  0  0
  4  5  1  0  0  0  0
  5 14  1  0  0  0  0
  6  7  1  0  0  0  0
  6  8  2  0  0  0  0
  6  9  1  0  0  0  0
  7 30  1  0  0  0  0
  7 31  1  0  0  0  0
  9 32  1  0  0  0  0
 10 11  1  0  0  0  0
 10 14  1  0  0  0  0
 11 12  2  0  0  0  0
 12 13  1  0  0  0  0
 12 15  1  0  0  0  0
 13 14  2  0  0  0  0
 13 33  1  0  0  0  0
 15 16  1  0  0  0  0
 15 20  1  0  0  0  0
 16 17  1  0  0  0  0
 16 34  1  0  0  0  0
 16 35  1  0  0  0  0
 17 18  1  0  0  0  0
 17 36  1  0  0  0  0
 17 37  1  0  0  0  0
 18 19  1  0  0  0  0
 18 21  1  0  0  0  0
 18 38  1  0  0  0  0
 19 20  1  0  0  0  0
 19 39  1  0  0  0  0
 19 40  1  0  0  0  0
 20 41  1  0  0  0  0
 20 42  1  0  0  0  0
 21 22  1  0  0  0  0
 22 23  2  0  0  0  0
 22 27  1  0  0  0  0
 23 24  1  0  0  0  0
 23 29  1  0  0  0  0
 24 25  2  0  0  0  0
 24 43  1  0  0  0  0
 25 26  1  0  0  0  0
 25 44  1  0  0  0  0
 26 27  2  0  0  0  0
 26 28  1  0  0  0  0
 27 45  1  0  0  0  0
M  END
>  <Mol_ID>
530

>  <Formula>
C17H16BrFN6O4

>  <MolWeight>
467.2491432

>  <Cat>
S1158

>  <Name>
MK-8245

>  <Synonyms>
N/A

>  <Target>
SCD

>  <Form>
free base

>  <CAS>
1030612-90-8

>  <URL>
http://selleckchem.com/products/mk-8245.html

$$$$
