MK1064
 OpenBabel08302521233D

 53 56  0  0  0  0  0  0  0  0999 V2000
   -0.2001    1.2902   -1.0231 C   0  0  0  0  0  0  0  0  0  0  0  0
    1.1866    1.2616   -0.7461 C   0  0  0  0  0  0  0  0  0  0  0  0
    1.7947   -0.0066   -0.6478 C   0  0  0  0  0  0  0  0  0  0  0  0
    1.0604   -1.1996   -0.8607 C   0  0  0  0  0  0  0  0  0  0  0  0
   -0.2309   -1.0226   -1.3551 C   0  0  0  0  0  0  0  0  0  0  0  0
   -0.8334    0.1772   -1.5289 N   0  0  0  0  0  0  0  0  0  0  0  0
    1.9608    2.5336   -0.4788 C   0  0  0  0  0  0  0  0  0  0  0  0
    1.7940    3.4914   -1.2384 O   0  0  0  0  0  0  0  0  0  0  0  0
    2.8086    2.5807    0.6308 N   0  0  0  0  0  0  0  0  0  0  0  0
   -1.1349    2.0420   -0.0398 C   0  0  0  0  0  0  0  0  0  0  0  0
   -2.0042    1.1555    0.5968 C   0  0  0  0  0  0  0  0  0  0  0  0
   -1.4469    0.5236    1.7072 C   0  0  0  0  0  0  0  0  0  0  0  0
   -0.3748    1.1312    2.3484 C   0  0  0  0  0  0  0  0  0  0  0  0
   -0.0502    2.4075    1.9359 C   0  0  0  0  0  0  0  0  0  0  0  0
   -0.4856    2.9130    0.7617 N   0  0  0  0  0  0  0  0  0  0  0  0
    3.5805    3.7840    0.9704 C   0  0  0  0  0  0  0  0  0  0  0  0
    3.1375    4.5588    2.2168 C   0  0  0  0  0  0  0  0  0  0  0  0
    2.3466    5.7041    2.0917 C   0  0  0  0  0  0  0  0  0  0  0  0
    2.0364    6.4730    3.2252 C   0  0  0  0  0  0  0  0  0  0  0  0
    2.5266    6.1148    4.4741 C   0  0  0  0  0  0  0  0  0  0  0  0
    3.3309    4.9699    4.5137 C   0  0  0  0  0  0  0  0  0  0  0  0
    3.6245    4.1797    3.4328 N   0  0  0  0  0  0  0  0  0  0  0  0
    3.8509    4.6462    5.7595 O   0  0  0  0  0  0  0  0  0  0  0  0
    4.8396    3.6297    5.7308 C   0  0  0  0  0  0  0  0  0  0  0  0
    2.2981    6.7932    5.6371 O   0  0  0  0  0  0  0  0  0  0  0  0
    1.3583    7.8619    5.6071 C   0  0  0  0  0  0  0  0  0  0  0  0
    1.2247   -3.6918   -1.2966 C   0  0  0  0  0  0  0  0  0  0  0  0
    1.6085   -2.5497   -0.5822 C   0  0  0  0  0  0  0  0  0  0  0  0
    2.5510   -2.7785    0.4323 C   0  0  0  0  0  0  0  0  0  0  0  0
    3.1090   -4.0456    0.6248 C   0  0  0  0  0  0  0  0  0  0  0  0
    2.6862   -5.0821   -0.1844 C   0  0  0  0  0  0  0  0  0  0  0  0
    1.7373   -4.9384   -1.1267 N   0  0  0  0  0  0  0  0  0  0  0  0
    2.8414   -0.0645   -0.3628 H   0  0  0  0  0  0  0  0  0  0  0  0
   -0.8924   -1.8641   -1.5572 H   0  0  0  0  0  0  0  0  0  0  0  0
    2.8807    1.7889    1.2559 H   0  0  0  0  0  0  0  0  0  0  0  0
   -2.7692    0.6329    0.0251 H   0  0  0  0  0  0  0  0  0  0  0  0
   -1.7750   -0.4733    1.9843 H   0  0  0  0  0  0  0  0  0  0  0  0
    0.1958    0.6290    3.1178 H   0  0  0  0  0  0  0  0  0  0  0  0
    0.6791    3.0171    2.4557 H   0  0  0  0  0  0  0  0  0  0  0  0
    4.6100    3.4453    1.1346 H   0  0  0  0  0  0  0  0  0  0  0  0
    3.6094    4.4660    0.1118 H   0  0  0  0  0  0  0  0  0  0  0  0
    1.9840    6.0133    1.1124 H   0  0  0  0  0  0  0  0  0  0  0  0
    1.4439    7.3742    3.0788 H   0  0  0  0  0  0  0  0  0  0  0  0
    4.4193    2.6798    5.3903 H   0  0  0  0  0  0  0  0  0  0  0  0
    5.6991    3.9217    5.1188 H   0  0  0  0  0  0  0  0  0  0  0  0
    5.2019    3.4814    6.7554 H   0  0  0  0  0  0  0  0  0  0  0  0
    1.7661    8.7207    5.0653 H   0  0  0  0  0  0  0  0  0  0  0  0
    0.3956    7.5525    5.1857 H   0  0  0  0  0  0  0  0  0  0  0  0
    1.1788    8.1726    6.6408 H   0  0  0  0  0  0  0  0  0  0  0  0
    0.4668   -3.6549   -2.0755 H   0  0  0  0  0  0  0  0  0  0  0  0
    2.8638   -1.9759    1.0948 H   0  0  0  0  0  0  0  0  0  0  0  0
    3.8622   -4.2147    1.3873 H   0  0  0  0  0  0  0  0  0  0  0  0
    3.1115   -6.0789   -0.0937 H   0  0  0  0  0  0  0  0  0  0  0  0
  1  2  1  0  0  0  0
  1  6  2  0  0  0  0
  1 10  1  0  0  0  0
  2  3  2  0  0  0  0
  2  7  1  0  0  0  0
  3  4  1  0  0  0  0
  3 33  1  0  0  0  0
  4  5  2  0  0  0  0
  4 28  1  0  0  0  0
  5  6  1  0  0  0  0
  5 34  1  0  0  0  0
  7  8  2  0  0  0  0
  7  9  1  0  0  0  0
  9 16  1  0  0  0  0
  9 35  1  0  0  0  0
 10 11  2  0  0  0  0
 10 15  1  0  0  0  0
 11 12  1  0  0  0  0
 11 36  1  0  0  0  0
 12 13  2  0  0  0  0
 12 37  1  0  0  0  0
 13 14  1  0  0  0  0
 13 38  1  0  0  0  0
 14 15  2  0  0  0  0
 14 39  1  0  0  0  0
 16 17  1  0  0  0  0
 16 40  1  0  0  0  0
 16 41  1  0  0  0  0
 17 18  2  0  0  0  0
 17 22  1  0  0  0  0
 18 19  1  0  0  0  0
 18 42  1  0  0  0  0
 19 20  2  0  0  0  0
 19 43  1  0  0  0  0
 20 21  1  0  0  0  0
 20 25  1  0  0  0  0
 21 22  2  0  0  0  0
 21 23  1  0  0  0  0
 23 24  1  0  0  0  0
 24 44  1  0  0  0  0
 24 45  1  0  0  0  0
 24 46  1  0  0  0  0
 25 26  1  0  0  0  0
 26 47  1  0  0  0  0
 26 48  1  0  0  0  0
 26 49  1  0  0  0  0
 27 28  2  0  0  0  0
 27 32  1  0  0  0  0
 27 50  1  0  0  0  0
 28 29  1  0  0  0  0
 29 30  2  0  0  0  0
 29 51  1  0  0  0  0
 30 31  1  0  0  0  0
 30 52  1  0  0  0  0
 31 32  2  0  0  0  0
 31 53  1  0  0  0  0
M  END
>  <Mol_ID>
4774

>  <Formula>
C24H20ClN5O3

>  <MolWeight>
461.9003

>  <Cat>
S6726

>  <Name>
MK1064

>  <Synonyms>
N/A

>  <Target>
OX Receptor

>  <Form>
Free Base

>  <CAS>
1207253-08-4

>  <URL>
http://www.selleck.cn/products/mk1064.html

$$$$
