MK8745.cdx
 OpenBabel08302519583D

 48 51  0  0  0  0  0  0  0  0999 V2000
    0.3361    0.1324    3.1507 C   0  0  0  0  0  0  0  0  0  0  0  0
    0.1153    1.0150    4.2087 C   0  0  0  0  0  0  0  0  0  0  0  0
    0.2393    2.3829    3.9988 C   0  0  0  0  0  0  0  0  0  0  0  0
    0.5723    2.8603    2.7322 C   0  0  0  0  0  0  0  0  0  0  0  0
    0.6434    1.9966    1.6290 C   0  0  0  0  0  0  0  0  0  0  0  0
    0.5841    0.6232    1.8636 C   0  0  0  0  0  0  0  0  0  0  0  0
    0.7403   -0.2639    0.8722 F   0  0  0  0  0  0  0  0  0  0  0  0
    0.8070    2.5399    0.2475 C   0  0  0  0  0  0  0  0  0  0  0  0
    0.0182    3.6320   -0.1717 N   0  0  0  0  0  0  0  0  0  0  0  0
    1.6556    2.0206   -0.4844 O   0  0  0  0  0  0  0  0  0  0  0  0
   -0.9518    4.3254    0.6879 C   0  0  0  0  0  0  0  0  0  0  0  0
   -1.9267    5.2613   -0.0357 C   0  0  0  0  0  0  0  0  0  0  0  0
   -1.2749    6.2069   -0.9591 N   0  0  0  0  0  0  0  0  0  0  0  0
   -0.4759    5.4116   -1.9215 C   0  0  0  0  0  0  0  0  0  0  0  0
    0.5216    4.3924   -1.3209 C   0  0  0  0  0  0  0  0  0  0  0  0
   -0.4408    7.2174   -0.2642 C   0  0  0  0  0  0  0  0  0  0  0  0
   -1.1979    8.2451    0.5784 C   0  0  0  0  0  0  0  0  0  0  0  0
   -2.2612    8.9448    0.0095 C   0  0  0  0  0  0  0  0  0  0  0  0
   -2.8194   10.0029    0.7072 C   0  0  0  0  0  0  0  0  0  0  0  0
   -2.2998   10.3334    1.9518 C   0  0  0  0  0  0  0  0  0  0  0  0
   -1.2463    9.5899    2.4863 C   0  0  0  0  0  0  0  0  0  0  0  0
   -0.7122    8.5343    1.8222 N   0  0  0  0  0  0  0  0  0  0  0  0
   -0.7498    9.8765    3.7694 N   0  0  0  0  0  0  0  0  0  0  0  0
   -0.6366   11.1362    4.2611 C   0  0  0  0  0  0  0  0  0  0  0  0
   -0.5038   12.2311    3.5406 N   0  0  0  0  0  0  0  0  0  0  0  0
   -0.4620   13.3495    4.3453 C   0  0  0  0  0  0  0  0  0  0  0  0
   -0.6043   13.1107    5.6920 C   0  0  0  0  0  0  0  0  0  0  0  0
   -0.6857   11.4204    5.9678 S   0  0  0  0  0  0  0  0  0  0  0  0
    0.3009   -0.9405    3.3168 H   0  0  0  0  0  0  0  0  0  0  0  0
   -0.1318    0.6382    5.1979 H   0  0  0  0  0  0  0  0  0  0  0  0
    0.0811    3.0842    4.8141 H   0  0  0  0  0  0  0  0  0  0  0  0
    0.7615    3.9212    2.6209 H   0  0  0  0  0  0  0  0  0  0  0  0
   -1.5204    3.5859    1.2588 H   0  0  0  0  0  0  0  0  0  0  0  0
   -0.3766    4.9425    1.3794 H   0  0  0  0  0  0  0  0  0  0  0  0
   -2.6437    4.6559   -0.6055 H   0  0  0  0  0  0  0  0  0  0  0  0
   -2.5241    5.7982    0.7097 H   0  0  0  0  0  0  0  0  0  0  0  0
   -1.1849    4.8602   -2.5538 H   0  0  0  0  0  0  0  0  0  0  0  0
    0.0587    6.0800   -2.6078 H   0  0  0  0  0  0  0  0  0  0  0  0
    1.4199    4.9164   -0.9759 H   0  0  0  0  0  0  0  0  0  0  0  0
    0.8396    3.6938   -2.1058 H   0  0  0  0  0  0  0  0  0  0  0  0
    0.3406    6.7557    0.3479 H   0  0  0  0  0  0  0  0  0  0  0  0
    0.0825    7.8112   -1.0252 H   0  0  0  0  0  0  0  0  0  0  0  0
   -2.6267    8.6863   -0.9771 H   0  0  0  0  0  0  0  0  0  0  0  0
   -3.6332   10.5822    0.2856 H   0  0  0  0  0  0  0  0  0  0  0  0
   -2.7213   11.1703    2.4985 H   0  0  0  0  0  0  0  0  0  0  0  0
   -0.0197    9.2196    4.0096 H   0  0  0  0  0  0  0  0  0  0  0  0
   -0.3410   14.3242    3.8883 H   0  0  0  0  0  0  0  0  0  0  0  0
   -0.6419   13.8268    6.5002 H   0  0  0  0  0  0  0  0  0  0  0  0
  1  2  2  0  0  0  0
  1 29  1  0  0  0  0
  2  3  1  0  0  0  0
  2 30  1  0  0  0  0
  3  4  2  0  0  0  0
  3 31  1  0  0  0  0
  4  5  1  0  0  0  0
  4 32  1  0  0  0  0
  5  6  2  0  0  0  0
  5  8  1  0  0  0  0
  6  1  1  0  0  0  0
  6  7  1  0  0  0  0
  8  9  1  0  0  0  0
  8 10  2  0  0  0  0
  9 11  1  0  0  0  0
 11 12  1  0  0  0  0
 11 33  1  0  0  0  0
 11 34  1  0  0  0  0
 12 13  1  0  0  0  0
 12 35  1  0  0  0  0
 12 36  1  0  0  0  0
 13 14  1  0  0  0  0
 13 16  1  0  0  0  0
 14 15  1  0  0  0  0
 14 37  1  0  0  0  0
 14 38  1  0  0  0  0
 15  9  1  0  0  0  0
 15 39  1  0  0  0  0
 15 40  1  0  0  0  0
 16 17  1  0  0  0  0
 16 41  1  0  0  0  0
 16 42  1  0  0  0  0
 17 18  2  0  0  0  0
 18 19  1  0  0  0  0
 18 43  1  0  0  0  0
 19 20  2  0  0  0  0
 19 44  1  0  0  0  0
 20 21  1  0  0  0  0
 20 45  1  0  0  0  0
 21 22  2  0  0  0  0
 21 23  1  0  0  0  0
 22 17  1  0  0  0  0
 23 24  1  0  0  0  0
 23 46  1  0  0  0  0
 24 25  2  0  0  0  0
 25 26  1  0  0  0  0
 26 27  2  0  0  0  0
 26 47  1  0  0  0  0
 27 28  1  0  0  0  0
 27 48  1  0  0  0  0
 28 24  1  0  0  0  0
M  END
>  <Mol_ID>
2355

>  <Formula>
C20H19ClFN5OS

>  <MolWeight>
431.9141632

>  <Cat>
S7065

>  <Name>
MK-8745

>  <Synonyms>
N/A

>  <Target>
Aurora Kinase

>  <Form>
free base

>  <CAS>
885325-71-3

>  <URL>
http://selleckchem.com/products/mk-8745.html

$$$$
