MKC-3946.cdx
 OpenBabel08302520433D

 47 50  0  0  0  0  0  0  0  0999 V2000
    2.0352   -0.2142   -0.6609 C   0  0  0  0  0  0  0  0  0  0  0  0
    1.6914    0.9873   -1.2698 C   0  0  0  0  0  0  0  0  0  0  0  0
    0.3632    1.4045   -1.2610 C   0  0  0  0  0  0  0  0  0  0  0  0
   -0.6343    0.6380   -0.6431 C   0  0  0  0  0  0  0  0  0  0  0  0
   -0.3009   -0.5916   -0.0125 C   0  0  0  0  0  0  0  0  0  0  0  0
    1.0634   -1.0100   -0.0362 C   0  0  0  0  0  0  0  0  0  0  0  0
   -1.9621    1.1067   -0.6466 C   0  0  0  0  0  0  0  0  0  0  0  0
   -2.9983    0.3965   -0.0319 C   0  0  0  0  0  0  0  0  0  0  0  0
   -2.6777   -0.8155    0.5839 C   0  0  0  0  0  0  0  0  0  0  0  0
   -1.3647   -1.2951    0.5948 C   0  0  0  0  0  0  0  0  0  0  0  0
    3.3461   -0.6106   -0.6801 O   0  0  0  0  0  0  0  0  0  0  0  0
   -4.3785    0.9023    0.0373 C   0  0  0  0  0  0  0  0  0  0  0  0
   -5.2958    0.7084    1.0539 C   0  0  0  0  0  0  0  0  0  0  0  0
   -6.5308    1.3636    0.8125 C   0  0  0  0  0  0  0  0  0  0  0  0
   -6.5879    1.9295   -0.4454 C   0  0  0  0  0  0  0  0  0  0  0  0
   -5.0681    1.8423   -1.2265 S   0  0  0  0  0  0  0  0  0  0  0  0
   -7.7235    2.5486   -1.1182 C   0  0  0  0  0  0  0  0  0  0  0  0
   -8.9798    1.9313   -0.9318 N   0  0  0  0  0  0  0  0  0  0  0  0
   -7.6149    3.5623   -1.8085 O   0  0  0  0  0  0  0  0  0  0  0  0
  -10.1188    2.5492   -1.6174 C   0  0  0  0  0  0  0  0  0  0  0  0
  -11.4812    2.0197   -1.1220 C   0  0  0  0  0  0  0  0  0  0  0  0
  -11.5936    0.5476   -1.0399 N   0  0  0  0  0  0  0  0  0  0  0  0
  -10.4599    0.0223   -0.2633 C   0  0  0  0  0  0  0  0  0  0  0  0
   -9.0847    0.4741   -0.7730 C   0  0  0  0  0  0  0  0  0  0  0  0
  -11.6547   -0.0693   -2.3652 C   0  0  0  0  0  0  0  0  0  0  0  0
    1.5400   -2.2849    0.5832 C   0  0  0  0  0  0  0  0  0  0  0  0
    0.8324   -3.0945    1.1622 O   0  0  0  0  0  0  0  0  0  0  0  0
    2.4351    1.6127   -1.7542 H   0  0  0  0  0  0  0  0  0  0  0  0
    0.1114    2.3487   -1.7424 H   0  0  0  0  0  0  0  0  0  0  0  0
   -2.1820    2.0615   -1.1237 H   0  0  0  0  0  0  0  0  0  0  0  0
   -3.4427   -1.4142    1.0735 H   0  0  0  0  0  0  0  0  0  0  0  0
   -1.1998   -2.2399    1.1071 H   0  0  0  0  0  0  0  0  0  0  0  0
    3.8789    0.0510   -1.1538 H   0  0  0  0  0  0  0  0  0  0  0  0
   -5.0869    0.1336    1.9482 H   0  0  0  0  0  0  0  0  0  0  0  0
   -7.3701    1.3470    1.4983 H   0  0  0  0  0  0  0  0  0  0  0  0
  -10.0811    3.6364   -1.4798 H   0  0  0  0  0  0  0  0  0  0  0  0
  -10.0022    2.3539   -2.6904 H   0  0  0  0  0  0  0  0  0  0  0  0
  -11.6615    2.4199   -0.1150 H   0  0  0  0  0  0  0  0  0  0  0  0
  -12.2867    2.4228   -1.7473 H   0  0  0  0  0  0  0  0  0  0  0  0
  -10.5755    0.3530    0.7788 H   0  0  0  0  0  0  0  0  0  0  0  0
  -10.4928   -1.0733   -0.2298 H   0  0  0  0  0  0  0  0  0  0  0  0
   -8.8532    0.0315   -1.7489 H   0  0  0  0  0  0  0  0  0  0  0  0
   -8.3406    0.0792   -0.0850 H   0  0  0  0  0  0  0  0  0  0  0  0
  -10.7637    0.1159   -2.9730 H   0  0  0  0  0  0  0  0  0  0  0  0
  -11.7774   -1.1541   -2.2698 H   0  0  0  0  0  0  0  0  0  0  0  0
  -12.5245    0.2995   -2.9177 H   0  0  0  0  0  0  0  0  0  0  0  0
    2.6223   -2.4892    0.4948 H   0  0  0  0  0  0  0  0  0  0  0  0
  1  2  2  0  0  0  0
  1 11  1  0  0  0  0
  2  3  1  0  0  0  0
  2 28  1  0  0  0  0
  3  4  2  0  0  0  0
  3 29  1  0  0  0  0
  4  5  1  0  0  0  0
  4  7  1  0  0  0  0
  5  6  2  0  0  0  0
  6  1  1  0  0  0  0
  6 26  1  0  0  0  0
  7  8  2  0  0  0  0
  7 30  1  0  0  0  0
  8  9  1  0  0  0  0
  8 12  1  0  0  0  0
  9 10  2  0  0  0  0
  9 31  1  0  0  0  0
 10  5  1  0  0  0  0
 10 32  1  0  0  0  0
 11 33  1  0  0  0  0
 12 13  2  0  0  0  0
 13 14  1  0  0  0  0
 13 34  1  0  0  0  0
 14 15  2  0  0  0  0
 14 35  1  0  0  0  0
 15 16  1  0  0  0  0
 15 17  1  0  0  0  0
 16 12  1  0  0  0  0
 17 18  1  0  0  0  0
 17 19  2  0  0  0  0
 18 20  1  0  0  0  0
 20 21  1  0  0  0  0
 20 36  1  0  0  0  0
 20 37  1  0  0  0  0
 21 22  1  0  0  0  0
 21 38  1  0  0  0  0
 21 39  1  0  0  0  0
 22 23  1  0  0  0  0
 22 25  1  0  0  0  0
 23 24  1  0  0  0  0
 23 40  1  0  0  0  0
 23 41  1  0  0  0  0
 24 18  1  0  0  0  0
 24 42  1  0  0  0  0
 24 43  1  0  0  0  0
 25 44  1  0  0  0  0
 25 45  1  0  0  0  0
 25 46  1  0  0  0  0
 26 27  2  0  0  0  0
 26 47  1  0  0  0  0
M  END
>  <Mol_ID>
4171

>  <Formula>
C21H20N2O3S

>  <MolWeight>
380.4601

>  <Cat>
S8286

>  <Name>
MKC-3946

>  <Synonyms>
N/A

>  <Target>
IRE1

>  <Form>
free base

>  <CAS>
1093119-54-0

>  <URL>
http://selleckchem.com/products/mkc-3946.html

$$$$
