MKC8866
 OpenBabel08302521453D

 45 47  0  0  0  0  0  0  0  0999 V2000
   -0.6744   -2.1853   -3.9149 O   0  0  0  0  0  0  0  0  0  0  0  0
   -3.6000    4.3452    0.8311 O   0  0  0  0  0  0  0  0  0  0  0  0
   -1.1144    1.0819   -0.3682 O   0  0  0  0  0  0  0  0  0  0  0  0
   -5.3130    2.2235    5.6742 O   0  0  0  0  0  0  0  0  0  0  0  0
   -2.9544    4.0183   -1.3272 O   0  0  0  0  0  0  0  0  0  0  0  0
   -4.6087    5.1974    5.4152 O   0  0  0  0  0  0  0  0  0  0  0  0
   -3.4672    6.7045    1.9575 O   0  0  0  0  0  0  0  0  0  0  0  0
   -1.3648    0.1549   -2.4437 N   0  0  0  0  0  0  0  0  0  0  0  0
   -2.1295   -0.2273   -3.6336 C   0  0  0  0  0  0  0  0  0  0  0  0
    0.0168   -0.3415   -2.4572 C   0  0  0  0  0  0  0  0  0  0  0  0
   -3.3050    1.2979   -1.3640 C   0  0  0  0  0  0  0  0  0  0  0  0
   -2.0406   -1.7436   -3.8561 C   0  0  0  0  0  0  0  0  0  0  0  0
    0.0267   -1.8547   -2.7026 C   0  0  0  0  0  0  0  0  0  0  0  0
   -1.8357    0.8608   -1.3456 C   0  0  0  0  0  0  0  0  0  0  0  0
   -3.6547    2.1011   -0.1240 C   0  0  0  0  0  0  0  0  0  0  0  0
   -4.1891    1.5983    1.0170 C   0  0  0  0  0  0  0  0  0  0  0  0
   -4.3516    2.4898    2.1916 C   0  0  0  0  0  0  0  0  0  0  0  0
   -4.0424    3.8426    2.0687 C   0  0  0  0  0  0  0  0  0  0  0  0
   -3.3516    3.5474   -0.2664 C   0  0  0  0  0  0  0  0  0  0  0  0
   -4.5660    0.1411    1.1203 C   0  0  0  0  0  0  0  0  0  0  0  0
   -4.7678    2.0551    3.4605 C   0  0  0  0  0  0  0  0  0  0  0  0
   -4.1436    4.7328    3.1541 C   0  0  0  0  0  0  0  0  0  0  0  0
   -4.8901    2.9158    4.5750 C   0  0  0  0  0  0  0  0  0  0  0  0
   -4.5676    4.2662    4.4147 C   0  0  0  0  0  0  0  0  0  0  0  0
   -3.8157    6.1780    3.0069 C   0  0  0  0  0  0  0  0  0  0  0  0
   -5.4976    2.8315    6.9366 C   0  0  0  0  0  0  0  0  0  0  0  0
   -5.1625    4.9087    6.1483 H   0  0  0  0  0  0  0  0  0  0  0  0
   -1.6683    0.2973   -4.4790 H   0  0  0  0  0  0  0  0  0  0  0  0
   -3.1734    0.0820   -3.5713 H   0  0  0  0  0  0  0  0  0  0  0  0
    0.5247    0.1715   -3.2825 H   0  0  0  0  0  0  0  0  0  0  0  0
    0.5440   -0.1040   -1.5294 H   0  0  0  0  0  0  0  0  0  0  0  0
   -3.4881    1.8880   -2.2692 H   0  0  0  0  0  0  0  0  0  0  0  0
   -3.9254    0.4013   -1.4437 H   0  0  0  0  0  0  0  0  0  0  0  0
   -2.5523   -2.2875   -3.0534 H   0  0  0  0  0  0  0  0  0  0  0  0
   -2.5183   -2.0136   -4.8030 H   0  0  0  0  0  0  0  0  0  0  0  0
    1.0544   -2.2159   -2.8034 H   0  0  0  0  0  0  0  0  0  0  0  0
   -0.4401   -2.3926   -1.8681 H   0  0  0  0  0  0  0  0  0  0  0  0
   -5.1568   -0.1689    0.2512 H   0  0  0  0  0  0  0  0  0  0  0  0
   -3.6692   -0.4842    1.1787 H   0  0  0  0  0  0  0  0  0  0  0  0
   -5.1980   -0.1003    1.9765 H   0  0  0  0  0  0  0  0  0  0  0  0
   -4.9940    1.0067    3.6412 H   0  0  0  0  0  0  0  0  0  0  0  0
   -3.9118    6.8004    3.9107 H   0  0  0  0  0  0  0  0  0  0  0  0
   -4.5668    3.2688    7.3099 H   0  0  0  0  0  0  0  0  0  0  0  0
   -6.3148    3.5588    6.9026 H   0  0  0  0  0  0  0  0  0  0  0  0
   -5.8010    2.0529    7.6432 H   0  0  0  0  0  0  0  0  0  0  0  0
  1 12  1  0  0  0  0
  1 13  1  0  0  0  0
  2 18  1  0  0  0  0
  2 19  1  0  0  0  0
  3 14  2  0  0  0  0
  4 23  1  0  0  0  0
  4 26  1  0  0  0  0
  5 19  2  0  0  0  0
  6 24  1  0  0  0  0
  6 27  1  0  0  0  0
  7 25  2  0  0  0  0
  8  9  1  0  0  0  0
  8 10  1  0  0  0  0
  8 14  1  0  0  0  0
  9 12  1  0  0  0  0
  9 28  1  0  0  0  0
  9 29  1  0  0  0  0
 10 13  1  0  0  0  0
 10 30  1  0  0  0  0
 10 31  1  0  0  0  0
 11 14  1  0  0  0  0
 11 15  1  0  0  0  0
 11 32  1  0  0  0  0
 11 33  1  0  0  0  0
 12 34  1  0  0  0  0
 12 35  1  0  0  0  0
 13 36  1  0  0  0  0
 13 37  1  0  0  0  0
 15 16  2  0  0  0  0
 15 19  1  0  0  0  0
 16 17  1  0  0  0  0
 16 20  1  0  0  0  0
 17 18  2  0  0  0  0
 17 21  1  0  0  0  0
 18 22  1  0  0  0  0
 20 38  1  0  0  0  0
 20 39  1  0  0  0  0
 20 40  1  0  0  0  0
 21 23  2  0  0  0  0
 21 41  1  0  0  0  0
 22 24  2  0  0  0  0
 22 25  1  0  0  0  0
 23 24  1  0  0  0  0
 25 42  1  0  0  0  0
 26 43  1  0  0  0  0
 26 44  1  0  0  0  0
 26 45  1  0  0  0  0
M  END
>  <Mol_ID>
9353

>  <Formula>
C18H19NO7

>  <MolWeight>
361.34596

>  <Cat>
S8875

>  <Name>
MKC8866

>  <Synonyms>
IRE1-IN-8866

>  <Target>
IRE1

>  <Form>
Free Base

>  <CAS>
1338934-59-0

>  <URL>
http://www.selleckchem.com/products/mkc8866.html

$$$$
