ML-098
 OpenBabel08302521343D

 42 44  0  0  0  0  0  0  0  0999 V2000
    1.1500    0.7256    0.5144 N   0  0  0  0  0  0  0  0  0  0  0  0
    1.3398   -0.2634    1.4424 C   0  0  0  0  0  0  0  0  0  0  0  0
    0.5232   -1.3272    1.1260 C   0  0  0  0  0  0  0  0  0  0  0  0
    0.0667   -1.0928   -0.2023 C   0  0  0  0  0  0  0  0  0  0  0  0
   -0.6151   -1.8959   -1.1436 C   0  0  0  0  0  0  0  0  0  0  0  0
   -0.6891   -1.4813   -2.4731 C   0  0  0  0  0  0  0  0  0  0  0  0
   -0.2009   -0.2330   -2.8476 C   0  0  0  0  0  0  0  0  0  0  0  0
    0.3564    0.6450   -1.9081 C   0  0  0  0  0  0  0  0  0  0  0  0
    0.5293    0.1743   -0.5938 C   0  0  0  0  0  0  0  0  0  0  0  0
    0.3009   -2.4961    1.9382 C   0  0  0  0  0  0  0  0  0  0  0  0
   -0.5261   -3.3832    1.7195 O   0  0  0  0  0  0  0  0  0  0  0  0
    1.0962   -2.5803    3.0268 O   0  0  0  0  0  0  0  0  0  0  0  0
    1.5840    2.1101    0.6553 C   0  0  0  0  0  0  0  0  0  0  0  0
    2.8445    2.3296    1.5017 C   0  0  0  0  0  0  0  0  0  0  0  0
    2.6171    2.2412    2.9247 O   0  0  0  0  0  0  0  0  0  0  0  0
    3.7098    2.6299    3.6775 C   0  0  0  0  0  0  0  0  0  0  0  0
    3.4800    3.1981    4.9424 C   0  0  0  0  0  0  0  0  0  0  0  0
    4.5659    3.7483    5.6470 C   0  0  0  0  0  0  0  0  0  0  0  0
    5.8568    3.7135    5.1196 C   0  0  0  0  0  0  0  0  0  0  0  0
    6.1073    3.0484    3.9230 C   0  0  0  0  0  0  0  0  0  0  0  0
    5.0305    2.5017    3.2160 C   0  0  0  0  0  0  0  0  0  0  0  0
    7.4961    2.9861    3.3600 C   0  0  0  0  0  0  0  0  0  0  0  0
    2.1155    3.2513    5.5711 C   0  0  0  0  0  0  0  0  0  0  0  0
    2.0043   -0.1312    2.2936 H   0  0  0  0  0  0  0  0  0  0  0  0
   -0.9832   -2.8783   -0.8578 H   0  0  0  0  0  0  0  0  0  0  0  0
   -1.0948   -2.1560   -3.2175 H   0  0  0  0  0  0  0  0  0  0  0  0
   -0.2318    0.0562   -3.8946 H   0  0  0  0  0  0  0  0  0  0  0  0
    0.7234    1.6150   -2.2211 H   0  0  0  0  0  0  0  0  0  0  0  0
    0.8024   -3.4180    3.4504 H   0  0  0  0  0  0  0  0  0  0  0  0
    1.8111    2.4662   -0.3568 H   0  0  0  0  0  0  0  0  0  0  0  0
    0.7307    2.6745    1.0431 H   0  0  0  0  0  0  0  0  0  0  0  0
    3.5841    1.5863    1.1920 H   0  0  0  0  0  0  0  0  0  0  0  0
    3.2145    3.3385    1.2808 H   0  0  0  0  0  0  0  0  0  0  0  0
    4.4118    4.2277    6.6114 H   0  0  0  0  0  0  0  0  0  0  0  0
    6.6704    4.1983    5.6601 H   0  0  0  0  0  0  0  0  0  0  0  0
    5.2519    1.9795    2.2928 H   0  0  0  0  0  0  0  0  0  0  0  0
    7.6745    3.8477    2.7095 H   0  0  0  0  0  0  0  0  0  0  0  0
    8.2402    2.9900    4.1642 H   0  0  0  0  0  0  0  0  0  0  0  0
    7.6468    2.0684    2.7832 H   0  0  0  0  0  0  0  0  0  0  0  0
    1.4090    3.7732    4.9149 H   0  0  0  0  0  0  0  0  0  0  0  0
    1.7492    2.2417    5.7802 H   0  0  0  0  0  0  0  0  0  0  0  0
    2.1381    3.7927    6.5213 H   0  0  0  0  0  0  0  0  0  0  0  0
  1  2  1  0  0  0  0
  1  9  1  0  0  0  0
  1 13  1  0  0  0  0
  2  3  2  0  0  0  0
  2 24  1  0  0  0  0
  3  4  1  0  0  0  0
  3 10  1  0  0  0  0
  4  5  2  0  0  0  0
  4  9  1  0  0  0  0
  5  6  1  0  0  0  0
  5 25  1  0  0  0  0
  6  7  2  0  0  0  0
  6 26  1  0  0  0  0
  7  8  1  0  0  0  0
  7 27  1  0  0  0  0
  8  9  2  0  0  0  0
  8 28  1  0  0  0  0
 10 11  2  0  0  0  0
 10 12  1  0  0  0  0
 12 29  1  0  0  0  0
 13 14  1  0  0  0  0
 13 30  1  0  0  0  0
 13 31  1  0  0  0  0
 14 15  1  0  0  0  0
 14 32  1  0  0  0  0
 14 33  1  0  0  0  0
 15 16  1  0  0  0  0
 16 17  2  0  0  0  0
 16 21  1  0  0  0  0
 17 18  1  0  0  0  0
 17 23  1  0  0  0  0
 18 19  2  0  0  0  0
 18 34  1  0  0  0  0
 19 20  1  0  0  0  0
 19 35  1  0  0  0  0
 20 21  2  0  0  0  0
 20 22  1  0  0  0  0
 21 36  1  0  0  0  0
 22 37  1  0  0  0  0
 22 38  1  0  0  0  0
 22 39  1  0  0  0  0
 23 40  1  0  0  0  0
 23 41  1  0  0  0  0
 23 42  1  0  0  0  0
M  END
>  <Mol_ID>
6450

>  <Formula>
C19H19NO3

>  <MolWeight>
309.35906

>  <Cat>
E2389

>  <Name>
ML-098

>  <Target>
Others

>  <Form>
free base

>  <CAS>
878978-76-8

>  <URL>
http://www.selleckchem.com/products/ml-098.html

$$$$
