ML-297
 OpenBabel08302521243D

 38 40  0  0  0  0  0  0  0  0999 V2000
   -9.6117   -2.0210   -2.9823 F   0  0  0  0  0  0  0  0  0  0  0  0
   -9.8385   -0.7166   -5.3768 F   0  0  0  0  0  0  0  0  0  0  0  0
   -6.0543   -0.7679   -0.1397 O   0  0  0  0  0  0  0  0  0  0  0  0
   -3.2180    2.8142    0.3489 N   0  0  0  0  0  0  0  0  0  0  0  0
   -4.4811    0.7636   -0.0154 N   0  0  0  0  0  0  0  0  0  0  0  0
   -2.0652    3.3832   -0.0758 N   0  0  0  0  0  0  0  0  0  0  0  0
   -5.5083    0.3753   -2.0778 N   0  0  0  0  0  0  0  0  0  0  0  0
   -3.5325    1.6869   -0.4105 C   0  0  0  0  0  0  0  0  0  0  0  0
   -3.8944    3.3525    1.4778 C   0  0  0  0  0  0  0  0  0  0  0  0
   -2.5571    1.5855   -1.3810 C   0  0  0  0  0  0  0  0  0  0  0  0
   -1.6297    2.6052   -1.0655 C   0  0  0  0  0  0  0  0  0  0  0  0
   -5.2653    3.1536    1.6942 C   0  0  0  0  0  0  0  0  0  0  0  0
   -3.1432    4.0815    2.4085 C   0  0  0  0  0  0  0  0  0  0  0  0
   -0.2586    2.8264   -1.5888 C   0  0  0  0  0  0  0  0  0  0  0  0
   -5.3663    0.0364   -0.7542 C   0  0  0  0  0  0  0  0  0  0  0  0
   -6.5701   -0.0238   -2.9256 C   0  0  0  0  0  0  0  0  0  0  0  0
   -5.8600    3.6502    2.8580 C   0  0  0  0  0  0  0  0  0  0  0  0
   -3.7380    4.5537    3.5775 C   0  0  0  0  0  0  0  0  0  0  0  0
   -5.0945    4.3346    3.8026 C   0  0  0  0  0  0  0  0  0  0  0  0
   -7.5629   -0.9359   -2.5500 C   0  0  0  0  0  0  0  0  0  0  0  0
   -6.6595    0.5835   -4.1870 C   0  0  0  0  0  0  0  0  0  0  0  0
   -8.6528   -1.1746   -3.3805 C   0  0  0  0  0  0  0  0  0  0  0  0
   -7.7596    0.3401   -5.0211 C   0  0  0  0  0  0  0  0  0  0  0  0
   -8.7636   -0.5224   -4.6008 C   0  0  0  0  0  0  0  0  0  0  0  0
   -4.6519    0.6573    0.9802 H   0  0  0  0  0  0  0  0  0  0  0  0
   -4.9070    1.1124   -2.4137 H   0  0  0  0  0  0  0  0  0  0  0  0
   -2.4066    0.7669   -2.0717 H   0  0  0  0  0  0  0  0  0  0  0  0
   -5.9013    2.6590    0.9670 H   0  0  0  0  0  0  0  0  0  0  0  0
   -2.0775    4.2500    2.2563 H   0  0  0  0  0  0  0  0  0  0  0  0
   -0.2160    3.7159   -2.2222 H   0  0  0  0  0  0  0  0  0  0  0  0
    0.4382    2.9694   -0.7534 H   0  0  0  0  0  0  0  0  0  0  0  0
    0.0901    1.9637   -2.1628 H   0  0  0  0  0  0  0  0  0  0  0  0
   -6.9234    3.5049    3.0303 H   0  0  0  0  0  0  0  0  0  0  0  0
   -3.1362    5.0824    4.3129 H   0  0  0  0  0  0  0  0  0  0  0  0
   -5.5563    4.7037    4.7144 H   0  0  0  0  0  0  0  0  0  0  0  0
   -7.5430   -1.4719   -1.6072 H   0  0  0  0  0  0  0  0  0  0  0  0
   -5.8910    1.2722   -4.5313 H   0  0  0  0  0  0  0  0  0  0  0  0
   -7.8474    0.8301   -5.9856 H   0  0  0  0  0  0  0  0  0  0  0  0
  1 22  1  0  0  0  0
  2 24  1  0  0  0  0
  3 15  2  0  0  0  0
  4  6  1  0  0  0  0
  4  8  1  0  0  0  0
  4  9  1  0  0  0  0
  5  8  1  0  0  0  0
  5 15  1  0  0  0  0
  5 25  1  0  0  0  0
  6 11  2  0  0  0  0
  7 15  1  0  0  0  0
  7 16  1  0  0  0  0
  7 26  1  0  0  0  0
  8 10  2  0  0  0  0
  9 12  2  0  0  0  0
  9 13  1  0  0  0  0
 10 11  1  0  0  0  0
 10 27  1  0  0  0  0
 11 14  1  0  0  0  0
 12 17  1  0  0  0  0
 12 28  1  0  0  0  0
 13 18  2  0  0  0  0
 13 29  1  0  0  0  0
 14 30  1  0  0  0  0
 14 31  1  0  0  0  0
 14 32  1  0  0  0  0
 16 20  2  0  0  0  0
 16 21  1  0  0  0  0
 17 19  2  0  0  0  0
 17 33  1  0  0  0  0
 18 19  1  0  0  0  0
 18 34  1  0  0  0  0
 19 35  1  0  0  0  0
 20 22  1  0  0  0  0
 20 36  1  0  0  0  0
 21 23  2  0  0  0  0
 21 37  1  0  0  0  0
 22 24  2  0  0  0  0
 23 24  1  0  0  0  0
 23 38  1  0  0  0  0
M  END
>  <Mol_ID>
5000

>  <Formula>
C17H14F2N4O

>  <MolWeight>
328.3160664

>  <Cat>
S6559

>  <Name>
ML-297

>  <Synonyms>
VU 0456810, CID 56642816

>  <Target>
Potassium Channel

>  <Form>
Free Base

>  <CAS>
1443246-62-5

>  <URL>
http://www.selleckchem.com/products/ml297.html

$$$$
