ML-7.cdx
 OpenBabel08302520433D

 38 40  0  0  0  0  0  0  0  0999 V2000
    1.7674   -0.7541   -3.6497 C   0  0  0  0  0  0  0  0  0  0  0  0
    0.5546   -0.1189   -3.4601 C   0  0  0  0  0  0  0  0  0  0  0  0
    0.2758    0.5092   -2.2428 C   0  0  0  0  0  0  0  0  0  0  0  0
    1.2284    0.5343   -1.1824 C   0  0  0  0  0  0  0  0  0  0  0  0
    2.4815   -0.1014   -1.3886 C   0  0  0  0  0  0  0  0  0  0  0  0
    2.6990   -0.7721   -2.6196 C   0  0  0  0  0  0  0  0  0  0  0  0
    0.9807    1.1853    0.0566 C   0  0  0  0  0  0  0  0  0  0  0  0
    1.9333    1.2402    1.0654 C   0  0  0  0  0  0  0  0  0  0  0  0
    3.1626    0.6610    0.8573 C   0  0  0  0  0  0  0  0  0  0  0  0
    3.4355   -0.0132   -0.3407 C   0  0  0  0  0  0  0  0  0  0  0  0
   -1.6412    1.3991   -2.1225 I   0  0  0  0  0  0  0  0  0  0  0  0
    5.1080   -0.6424   -0.4857 S   0  0  0  0  0  0  0  0  0  0  0  0
    5.5008   -0.7226   -1.8736 O   0  0  0  0  0  0  0  0  0  0  0  0
    5.8970    0.1741    0.4140 O   0  0  0  0  0  0  0  0  0  0  0  0
    4.9703   -2.2263    0.1195 N   0  0  0  0  0  0  0  0  0  0  0  0
    4.5868   -2.4559    1.5264 C   0  0  0  0  0  0  0  0  0  0  0  0
    5.5360   -1.8197    2.5459 C   0  0  0  0  0  0  0  0  0  0  0  0
    6.9950   -1.9181    2.4525 N   0  0  0  0  0  0  0  0  0  0  0  0
    7.6911   -1.9977    1.1723 C   0  0  0  0  0  0  0  0  0  0  0  0
    7.3495   -3.0766    0.1514 C   0  0  0  0  0  0  0  0  0  0  0  0
    5.9295   -3.2309   -0.3647 C   0  0  0  0  0  0  0  0  0  0  0  0
    1.9991   -1.2415   -4.5900 H   0  0  0  0  0  0  0  0  0  0  0  0
   -0.1588   -0.1181   -4.2784 H   0  0  0  0  0  0  0  0  0  0  0  0
    3.6162   -1.3145   -2.8280 H   0  0  0  0  0  0  0  0  0  0  0  0
    0.0368    1.6814    0.2585 H   0  0  0  0  0  0  0  0  0  0  0  0
    1.7257    1.7644    1.9977 H   0  0  0  0  0  0  0  0  0  0  0  0
    3.9196    0.7504    1.6342 H   0  0  0  0  0  0  0  0  0  0  0  0
    4.5103   -3.5338    1.7236 H   0  0  0  0  0  0  0  0  0  0  0  0
    3.5684   -2.0798    1.6857 H   0  0  0  0  0  0  0  0  0  0  0  0
    5.2807   -2.2618    3.5184 H   0  0  0  0  0  0  0  0  0  0  0  0
    5.2554   -0.7672    2.6620 H   0  0  0  0  0  0  0  0  0  0  0  0
    7.3464   -1.0575    2.8891 H   0  0  0  0  0  0  0  0  0  0  0  0
    8.7363   -2.1917    1.4497 H   0  0  0  0  0  0  0  0  0  0  0  0
    7.7642   -1.0257    0.6783 H   0  0  0  0  0  0  0  0  0  0  0  0
    7.9828   -2.8872   -0.7273 H   0  0  0  0  0  0  0  0  0  0  0  0
    7.6914   -4.0463    0.5336 H   0  0  0  0  0  0  0  0  0  0  0  0
    5.9214   -3.2436   -1.4612 H   0  0  0  0  0  0  0  0  0  0  0  0
    5.5636   -4.2334   -0.0972 H   0  0  0  0  0  0  0  0  0  0  0  0
  1  2  2  0  0  0  0
  1 22  1  0  0  0  0
  2  3  1  0  0  0  0
  2 23  1  0  0  0  0
  3  4  2  0  0  0  0
  3 11  1  0  0  0  0
  4  5  1  0  0  0  0
  4  7  1  0  0  0  0
  5  6  2  0  0  0  0
  6  1  1  0  0  0  0
  6 24  1  0  0  0  0
  7  8  2  0  0  0  0
  7 25  1  0  0  0  0
  8  9  1  0  0  0  0
  8 26  1  0  0  0  0
  9 10  2  0  0  0  0
  9 27  1  0  0  0  0
 10  5  1  0  0  0  0
 10 12  1  0  0  0  0
 12 13  2  0  0  0  0
 12 14  2  0  0  0  0
 12 15  1  0  0  0  0
 15 16  1  0  0  0  0
 16 17  1  0  0  0  0
 16 28  1  0  0  0  0
 16 29  1  0  0  0  0
 17 18  1  0  0  0  0
 17 30  1  0  0  0  0
 17 31  1  0  0  0  0
 18 19  1  0  0  0  0
 18 32  1  0  0  0  0
 19 20  1  0  0  0  0
 19 33  1  0  0  0  0
 19 34  1  0  0  0  0
 20 21  1  0  0  0  0
 20 35  1  0  0  0  0
 20 36  1  0  0  0  0
 21 15  1  0  0  0  0
 21 37  1  0  0  0  0
 21 38  1  0  0  0  0
M  END
>  <Mol_ID>
4084

>  <Formula>
C15H18ClIN2O2S

>  <MolWeight>
452.73809

>  <Cat>
S8388

>  <Name>
ML-7 HCl

>  <Synonyms>
N/A

>  <Target>
MLCK,PKA,PKC

>  <Form>
hydrochloride

>  <CAS>
110448-33-4

>  <URL>
http://selleckchem.com/products/ml-7.html

$$$$
