ML133 HCL.cdx
 OpenBabel08302521453D

 40 42  0  0  0  0  0  0  0  0999 V2000
    2.1804   -0.7774   -1.1386 C   0  0  0  0  0  0  0  0  0  0  0  0
    1.0297   -1.4490   -0.7311 C   0  0  0  0  0  0  0  0  0  0  0  0
   -0.1139   -0.7442   -0.3220 C   0  0  0  0  0  0  0  0  0  0  0  0
   -0.1195    0.6769   -0.3255 C   0  0  0  0  0  0  0  0  0  0  0  0
    1.0697    1.3269   -0.7319 C   0  0  0  0  0  0  0  0  0  0  0  0
    2.2015    0.6089   -1.1333 C   0  0  0  0  0  0  0  0  0  0  0  0
   -1.2532   -1.4547    0.0808 C   0  0  0  0  0  0  0  0  0  0  0  0
   -2.4078   -0.7864    0.4742 C   0  0  0  0  0  0  0  0  0  0  0  0
   -2.4389    0.6022    0.4621 C   0  0  0  0  0  0  0  0  0  0  0  0
   -1.3118    1.3539    0.0743 C   0  0  0  0  0  0  0  0  0  0  0  0
   -1.4556    2.8636    0.0564 C   0  0  0  0  0  0  0  0  0  0  0  0
   -1.9406    3.3349   -1.2426 N   0  0  0  0  0  0  0  0  0  0  0  0
   -2.0808    4.7890   -1.2498 C   0  0  0  0  0  0  0  0  0  0  0  0
   -2.6009    5.3266   -2.5667 C   0  0  0  0  0  0  0  0  0  0  0  0
   -3.8459    4.9178   -3.0669 C   0  0  0  0  0  0  0  0  0  0  0  0
   -4.3959    5.5177   -4.2082 C   0  0  0  0  0  0  0  0  0  0  0  0
   -3.7091    6.5341   -4.8689 C   0  0  0  0  0  0  0  0  0  0  0  0
   -2.4511    6.9203   -4.3977 C   0  0  0  0  0  0  0  0  0  0  0  0
   -1.8993    6.3204   -3.2605 C   0  0  0  0  0  0  0  0  0  0  0  0
   -4.1461    7.2239   -5.9667 O   0  0  0  0  0  0  0  0  0  0  0  0
   -5.4490    6.9136   -6.4455 C   0  0  0  0  0  0  0  0  0  0  0  0
    3.0537   -1.3399   -1.4594 H   0  0  0  0  0  0  0  0  0  0  0  0
    1.0312   -2.5377   -0.7398 H   0  0  0  0  0  0  0  0  0  0  0  0
    1.1363    2.4102   -0.7449 H   0  0  0  0  0  0  0  0  0  0  0  0
    3.0993    1.1391   -1.4448 H   0  0  0  0  0  0  0  0  0  0  0  0
   -1.2528   -2.5423    0.0862 H   0  0  0  0  0  0  0  0  0  0  0  0
   -3.2883   -1.3490    0.7773 H   0  0  0  0  0  0  0  0  0  0  0  0
   -3.3559    1.1115    0.7505 H   0  0  0  0  0  0  0  0  0  0  0  0
   -2.1677    3.1522    0.8417 H   0  0  0  0  0  0  0  0  0  0  0  0
   -0.5090    3.3409    0.3346 H   0  0  0  0  0  0  0  0  0  0  0  0
   -1.2817    3.0544   -1.9678 H   0  0  0  0  0  0  0  0  0  0  0  0
   -2.7866    5.1044   -0.4720 H   0  0  0  0  0  0  0  0  0  0  0  0
   -1.1161    5.2575   -1.0190 H   0  0  0  0  0  0  0  0  0  0  0  0
   -4.4041    4.1371   -2.5541 H   0  0  0  0  0  0  0  0  0  0  0  0
   -5.3696    5.1737   -4.5426 H   0  0  0  0  0  0  0  0  0  0  0  0
   -1.9063    7.7075   -4.9095 H   0  0  0  0  0  0  0  0  0  0  0  0
   -0.9255    6.6573   -2.9117 H   0  0  0  0  0  0  0  0  0  0  0  0
   -5.5313    5.8576   -6.7205 H   0  0  0  0  0  0  0  0  0  0  0  0
   -6.2136    7.1934   -5.7133 H   0  0  0  0  0  0  0  0  0  0  0  0
   -5.6221    7.5025   -7.3519 H   0  0  0  0  0  0  0  0  0  0  0  0
  1  2  2  0  0  0  0
  1 22  1  0  0  0  0
  2  3  1  0  0  0  0
  2 23  1  0  0  0  0
  3  4  2  0  0  0  0
  3  7  1  0  0  0  0
  4  5  1  0  0  0  0
  5  6  2  0  0  0  0
  5 24  1  0  0  0  0
  6  1  1  0  0  0  0
  6 25  1  0  0  0  0
  7  8  2  0  0  0  0
  7 26  1  0  0  0  0
  8  9  1  0  0  0  0
  8 27  1  0  0  0  0
  9 10  2  0  0  0  0
  9 28  1  0  0  0  0
 10  4  1  0  0  0  0
 10 11  1  0  0  0  0
 11 12  1  0  0  0  0
 11 29  1  0  0  0  0
 11 30  1  0  0  0  0
 12 13  1  0  0  0  0
 12 31  1  0  0  0  0
 13 14  1  0  0  0  0
 13 32  1  0  0  0  0
 13 33  1  0  0  0  0
 14 15  2  0  0  0  0
 15 16  1  0  0  0  0
 15 34  1  0  0  0  0
 16 17  2  0  0  0  0
 16 35  1  0  0  0  0
 17 18  1  0  0  0  0
 17 20  1  0  0  0  0
 18 19  2  0  0  0  0
 18 36  1  0  0  0  0
 19 14  1  0  0  0  0
 19 37  1  0  0  0  0
 20 21  1  0  0  0  0
 21 38  1  0  0  0  0
 21 39  1  0  0  0  0
 21 40  1  0  0  0  0
M  END
>  <Mol_ID>
964

>  <Formula>
C19H20ClNO

>  <MolWeight>
313.8212

>  <Cat>
S2825

>  <Name>
ML133 HCl

>  <Synonyms>
N/A

>  <Target>
Potassium Channel

>  <Form>
Hydrochloride

>  <CAS>
1222781-70-5

>  <URL>
http://selleckchem.com/products/Ml-133-hcl.html

$$$$
