ML264.cdx
 OpenBabel08302520413D

 46 47  0  0  0  0  0  0  0  0999 V2000
    1.2890   -0.0403    1.2300 C   0  0  0  0  0  0  0  0  0  0  0  0
    1.2663    0.2746   -0.1267 C   0  0  0  0  0  0  0  0  0  0  0  0
    0.1683    0.9475   -0.6705 C   0  0  0  0  0  0  0  0  0  0  0  0
   -0.9217    1.3044    0.1339 C   0  0  0  0  0  0  0  0  0  0  0  0
   -0.8837    0.9848    1.4979 C   0  0  0  0  0  0  0  0  0  0  0  0
    0.2138    0.3126    2.0417 C   0  0  0  0  0  0  0  0  0  0  0  0
   -2.0242    2.0720   -0.4621 C   0  0  0  0  0  0  0  0  0  0  0  0
   -3.3012    2.0080   -0.0545 C   0  0  0  0  0  0  0  0  0  0  0  0
   -4.3245    2.8525   -0.7145 C   0  0  0  0  0  0  0  0  0  0  0  0
   -5.5783    2.6935   -0.1818 N   0  0  0  0  0  0  0  0  0  0  0  0
   -4.0622    3.6171   -1.6336 O   0  0  0  0  0  0  0  0  0  0  0  0
   -6.6787    3.5370   -0.6040 C   0  0  0  0  0  0  0  0  0  0  0  0
   -7.1797    4.4227    0.5542 C   0  0  0  0  0  0  0  0  0  0  0  0
   -7.8245    5.6246    0.2116 N   0  0  0  0  0  0  0  0  0  0  0  0
   -8.3233    6.4906    1.3073 C   0  0  0  0  0  0  0  0  0  0  0  0
   -8.0498    5.9463   -1.1938 C   0  0  0  0  0  0  0  0  0  0  0  0
   -7.0637    4.0423    1.7232 O   0  0  0  0  0  0  0  0  0  0  0  0
   -9.7819    6.1855    1.6740 C   0  0  0  0  0  0  0  0  0  0  0  0
  -10.7689    6.6032    0.6049 C   0  0  0  0  0  0  0  0  0  0  0  0
  -10.6752    8.3423    0.2243 S   0  0  0  0  0  0  0  0  0  0  0  0
   -8.9406    8.7552    0.1671 C   0  0  0  0  0  0  0  0  0  0  0  0
   -8.0809    8.0027    1.1658 C   0  0  0  0  0  0  0  0  0  0  0  0
  -11.1999    8.5151   -1.1138 O   0  0  0  0  0  0  0  0  0  0  0  0
  -11.2506    9.0579    1.3477 O   0  0  0  0  0  0  0  0  0  0  0  0
    2.1474   -0.5529    1.6562 H   0  0  0  0  0  0  0  0  0  0  0  0
    2.1058    0.0043   -0.7617 H   0  0  0  0  0  0  0  0  0  0  0  0
    0.1747    1.1905   -1.7312 H   0  0  0  0  0  0  0  0  0  0  0  0
   -1.6956    1.2713    2.1610 H   0  0  0  0  0  0  0  0  0  0  0  0
    0.2329    0.0772    3.1027 H   0  0  0  0  0  0  0  0  0  0  0  0
   -1.7499    2.7266   -1.2889 H   0  0  0  0  0  0  0  0  0  0  0  0
   -3.6205    1.3526    0.7459 H   0  0  0  0  0  0  0  0  0  0  0  0
   -5.7127    2.1611    0.6691 H   0  0  0  0  0  0  0  0  0  0  0  0
   -6.3627    4.1403   -1.4563 H   0  0  0  0  0  0  0  0  0  0  0  0
   -7.4991    2.8801   -0.9071 H   0  0  0  0  0  0  0  0  0  0  0  0
   -7.7412    6.2105    2.1969 H   0  0  0  0  0  0  0  0  0  0  0  0
   -7.1114    6.2955   -1.6316 H   0  0  0  0  0  0  0  0  0  0  0  0
   -8.3969    5.0544   -1.7238 H   0  0  0  0  0  0  0  0  0  0  0  0
   -8.8192    6.6949   -1.3346 H   0  0  0  0  0  0  0  0  0  0  0  0
  -10.0285    6.7077    2.6081 H   0  0  0  0  0  0  0  0  0  0  0  0
   -9.9005    5.1144    1.8763 H   0  0  0  0  0  0  0  0  0  0  0  0
  -11.7928    6.4114    0.9398 H   0  0  0  0  0  0  0  0  0  0  0  0
  -10.6265    6.0364   -0.3191 H   0  0  0  0  0  0  0  0  0  0  0  0
   -8.5829    8.6209   -0.8550 H   0  0  0  0  0  0  0  0  0  0  0  0
   -8.8765    9.8321    0.3642 H   0  0  0  0  0  0  0  0  0  0  0  0
   -8.2657    8.4537    2.1512 H   0  0  0  0  0  0  0  0  0  0  0  0
   -7.0234    8.1908    0.9450 H   0  0  0  0  0  0  0  0  0  0  0  0
  1  2  2  0  0  0  0
  1 25  1  0  0  0  0
  2  3  1  0  0  0  0
  2 26  1  0  0  0  0
  3  4  2  0  0  0  0
  3 27  1  0  0  0  0
  4  5  1  0  0  0  0
  4  7  1  0  0  0  0
  5  6  2  0  0  0  0
  5 28  1  0  0  0  0
  6  1  1  0  0  0  0
  6 29  1  0  0  0  0
  7  8  2  0  0  0  0
  7 30  1  0  0  0  0
  8  9  1  0  0  0  0
  8 31  1  0  0  0  0
  9 10  1  0  0  0  0
  9 11  2  0  0  0  0
 10 12  1  0  0  0  0
 10 32  1  0  0  0  0
 12 13  1  0  0  0  0
 12 33  1  0  0  0  0
 12 34  1  0  0  0  0
 13 14  1  0  0  0  0
 13 17  2  0  0  0  0
 14 15  1  0  0  0  0
 14 16  1  0  0  0  0
 15 18  1  0  0  0  0
 15 35  1  0  0  0  0
 16 36  1  0  0  0  0
 16 37  1  0  0  0  0
 16 38  1  0  0  0  0
 18 19  1  0  0  0  0
 18 39  1  0  0  0  0
 18 40  1  0  0  0  0
 19 20  1  0  0  0  0
 19 41  1  0  0  0  0
 19 42  1  0  0  0  0
 20 21  1  0  0  0  0
 20 23  2  0  0  0  0
 20 24  2  0  0  0  0
 21 22  1  0  0  0  0
 21 43  1  0  0  0  0
 21 44  1  0  0  0  0
 22 15  1  0  0  0  0
 22 45  1  0  0  0  0
 22 46  1  0  0  0  0
M  END
>  <Mol_ID>
3932

>  <Formula>
C17H21ClN2O4S

>  <MolWeight>
384.87764

>  <Cat>
S8196

>  <Name>
ML264

>  <Synonyms>
CID-51003603

>  <Target>
KLF

>  <Form>
free base

>  <CAS>
1550008-55-3

>  <URL>
http://selleckchem.com/products/ml264.html

$$$$
