ML323.cdx
 OpenBabel08302519583D

 53 56  0  0  0  0  0  0  0  0999 V2000
    1.4182   -0.3039    0.0275 C   0  0  0  0  0  0  0  0  0  0  0  0
    0.7051   -0.2951   -1.2036 C   0  0  0  0  0  0  0  0  0  0  0  0
   -0.7051   -0.1742   -1.1716 C   0  0  0  0  0  0  0  0  0  0  0  0
   -1.4061   -0.0113    0.0230 C   0  0  0  0  0  0  0  0  0  0  0  0
   -0.7186    0.0183    1.2228 C   0  0  0  0  0  0  0  0  0  0  0  0
    0.6666   -0.1341    1.2202 C   0  0  0  0  0  0  0  0  0  0  0  0
    2.8879   -0.4472    0.1695 C   0  0  0  0  0  0  0  0  0  0  0  0
    1.4075   -0.4015   -2.5577 C   0  0  0  0  0  0  0  0  0  0  0  0
    1.4786   -1.8616   -3.0145 C   0  0  0  0  0  0  0  0  0  0  0  0
    0.7669    0.4503   -3.6676 C   0  0  0  0  0  0  0  0  0  0  0  0
    3.5722   -1.2720   -0.6426 N   0  0  0  0  0  0  0  0  0  0  0  0
    4.9043   -1.4032   -0.4819 C   0  0  0  0  0  0  0  0  0  0  0  0
    5.5682   -0.7085    0.5193 C   0  0  0  0  0  0  0  0  0  0  0  0
    4.7642    0.0578    1.3399 C   0  0  0  0  0  0  0  0  0  0  0  0
    3.4482    0.2259    1.1839 N   0  0  0  0  0  0  0  0  0  0  0  0
    7.0023   -0.8113    0.9287 C   0  0  0  0  0  0  0  0  0  0  0  0
    5.4308   -2.2983   -1.3697 N   0  0  0  0  0  0  0  0  0  0  0  0
    6.7868   -2.4631   -1.8382 C   0  0  0  0  0  0  0  0  0  0  0  0
    7.6024   -3.3254   -0.9017 C   0  0  0  0  0  0  0  0  0  0  0  0
    6.9913   -4.0940    0.1021 C   0  0  0  0  0  0  0  0  0  0  0  0
    7.7490   -4.6794    1.1091 C   0  0  0  0  0  0  0  0  0  0  0  0
    9.1412   -4.5493    1.1018 C   0  0  0  0  0  0  0  0  0  0  0  0
    9.7725   -3.8712    0.0491 C   0  0  0  0  0  0  0  0  0  0  0  0
    9.0047   -3.2702   -0.9524 C   0  0  0  0  0  0  0  0  0  0  0  0
    9.8800   -5.0792    2.1863 N   0  0  0  0  0  0  0  0  0  0  0  0
    9.2736   -5.7269    3.2123 N   0  0  0  0  0  0  0  0  0  0  0  0
   10.1991   -6.0838    4.0911 N   0  0  0  0  0  0  0  0  0  0  0  0
   11.4042   -5.6615    3.6240 C   0  0  0  0  0  0  0  0  0  0  0  0
   11.2334   -5.0216    2.4216 C   0  0  0  0  0  0  0  0  0  0  0  0
   -1.2858   -0.1953   -2.0903 H   0  0  0  0  0  0  0  0  0  0  0  0
   -2.4870    0.0985    0.0106 H   0  0  0  0  0  0  0  0  0  0  0  0
   -1.2490    0.1557    2.1607 H   0  0  0  0  0  0  0  0  0  0  0  0
    1.1823   -0.1165    2.1810 H   0  0  0  0  0  0  0  0  0  0  0  0
    2.4244   -0.0060   -2.4586 H   0  0  0  0  0  0  0  0  0  0  0  0
    0.4792   -2.2735   -3.1905 H   0  0  0  0  0  0  0  0  0  0  0  0
    2.0483   -1.9457   -3.9461 H   0  0  0  0  0  0  0  0  0  0  0  0
    1.9645   -2.4988   -2.2696 H   0  0  0  0  0  0  0  0  0  0  0  0
    0.6499    1.4923   -3.3506 H   0  0  0  0  0  0  0  0  0  0  0  0
    1.3948    0.4414   -4.5656 H   0  0  0  0  0  0  0  0  0  0  0  0
   -0.2172    0.0728   -3.9667 H   0  0  0  0  0  0  0  0  0  0  0  0
    5.1791    0.5717    2.2044 H   0  0  0  0  0  0  0  0  0  0  0  0
    7.3459    0.1462    1.3357 H   0  0  0  0  0  0  0  0  0  0  0  0
    7.1200   -1.5707    1.7090 H   0  0  0  0  0  0  0  0  0  0  0  0
    7.6818   -1.0135    0.1082 H   0  0  0  0  0  0  0  0  0  0  0  0
    4.7099   -2.7565   -1.9145 H   0  0  0  0  0  0  0  0  0  0  0  0
    6.7747   -2.9433   -2.8250 H   0  0  0  0  0  0  0  0  0  0  0  0
    7.2603   -1.4826   -1.9799 H   0  0  0  0  0  0  0  0  0  0  0  0
    5.9071   -4.1630    0.1643 H   0  0  0  0  0  0  0  0  0  0  0  0
    7.2238   -5.1858    1.9162 H   0  0  0  0  0  0  0  0  0  0  0  0
   10.8507   -3.7564   -0.0012 H   0  0  0  0  0  0  0  0  0  0  0  0
    9.5031   -2.6998   -1.7352 H   0  0  0  0  0  0  0  0  0  0  0  0
   12.3173   -5.8342    4.1743 H   0  0  0  0  0  0  0  0  0  0  0  0
   11.9330   -4.5456    1.7564 H   0  0  0  0  0  0  0  0  0  0  0  0
  1  2  2  0  0  0  0
  1  7  1  0  0  0  0
  2  3  1  0  0  0  0
  2  8  1  0  0  0  0
  3  4  2  0  0  0  0
  3 30  1  0  0  0  0
  4  5  1  0  0  0  0
  4 31  1  0  0  0  0
  5  6  2  0  0  0  0
  5 32  1  0  0  0  0
  6  1  1  0  0  0  0
  6 33  1  0  0  0  0
  7 11  2  0  0  0  0
  8  9  1  0  0  0  0
  8 10  1  0  0  0  0
  8 34  1  0  0  0  0
  9 35  1  0  0  0  0
  9 36  1  0  0  0  0
  9 37  1  0  0  0  0
 10 38  1  0  0  0  0
 10 39  1  0  0  0  0
 10 40  1  0  0  0  0
 11 12  1  0  0  0  0
 12 13  2  0  0  0  0
 12 17  1  0  0  0  0
 13 14  1  0  0  0  0
 13 16  1  0  0  0  0
 14 15  2  0  0  0  0
 14 41  1  0  0  0  0
 15  7  1  0  0  0  0
 16 42  1  0  0  0  0
 16 43  1  0  0  0  0
 16 44  1  0  0  0  0
 17 18  1  0  0  0  0
 17 45  1  0  0  0  0
 18 19  1  0  0  0  0
 18 46  1  0  0  0  0
 18 47  1  0  0  0  0
 19 20  2  0  0  0  0
 20 21  1  0  0  0  0
 20 48  1  0  0  0  0
 21 22  2  0  0  0  0
 21 49  1  0  0  0  0
 22 23  1  0  0  0  0
 22 25  1  0  0  0  0
 23 24  2  0  0  0  0
 23 50  1  0  0  0  0
 24 19  1  0  0  0  0
 24 51  1  0  0  0  0
 25 26  1  0  0  0  0
 26 27  2  0  0  0  0
 27 28  1  0  0  0  0
 28 29  2  0  0  0  0
 28 52  1  0  0  0  0
 29 25  1  0  0  0  0
 29 53  1  0  0  0  0
M  END
>  <Mol_ID>
2411

>  <Formula>
C23H24N6

>  <MolWeight>
384.47686

>  <Cat>
S7529

>  <Name>
ML323

>  <Synonyms>
N/A

>  <Target>
DUB

>  <Form>
free base

>  <CAS>
1572414-83-5

>  <URL>
http://selleckchem.com/products/ml323.html

$$$$
