ML347.cdx
 OpenBabel08302519583D

 43 47  0  0  0  0  0  0  0  0999 V2000
   -2.0589    0.9068   -0.1111 C   0  0  0  0  0  0  0  0  0  0  0  0
   -2.0476   -0.5876   -0.0488 C   0  0  0  0  0  0  0  0  0  0  0  0
   -0.9965   -1.3457   -0.0309 N   0  0  0  0  0  0  0  0  0  0  0  0
    0.2138   -0.7009   -0.0668 C   0  0  0  0  0  0  0  0  0  0  0  0
    0.2945    0.7004   -0.1449 N   0  0  0  0  0  0  0  0  0  0  0  0
   -0.8516    1.4874   -0.1677 C   0  0  0  0  0  0  0  0  0  0  0  0
    1.5126   -1.1589   -0.0052 C   0  0  0  0  0  0  0  0  0  0  0  0
    2.3007    0.0204   -0.0501 C   0  0  0  0  0  0  0  0  0  0  0  0
    1.5796    1.1328   -0.1702 N   0  0  0  0  0  0  0  0  0  0  0  0
   -3.2972    1.6708   -0.1084 C   0  0  0  0  0  0  0  0  0  0  0  0
    1.9322   -2.5467    0.1852 C   0  0  0  0  0  0  0  0  0  0  0  0
    1.1945   -3.3758    1.0457 C   0  0  0  0  0  0  0  0  0  0  0  0
    1.6683   -4.6361    1.3886 C   0  0  0  0  0  0  0  0  0  0  0  0
    2.9379   -5.0249    0.9761 C   0  0  0  0  0  0  0  0  0  0  0  0
    3.6997   -4.2373    0.1288 C   0  0  0  0  0  0  0  0  0  0  0  0
    3.1365   -3.0434   -0.3831 C   0  0  0  0  0  0  0  0  0  0  0  0
    4.9297   -4.6619   -0.2049 N   0  0  0  0  0  0  0  0  0  0  0  0
    5.5768   -4.0189   -1.1954 C   0  0  0  0  0  0  0  0  0  0  0  0
    5.0103   -2.9955   -1.9325 C   0  0  0  0  0  0  0  0  0  0  0  0
    3.8043   -2.4782   -1.4885 C   0  0  0  0  0  0  0  0  0  0  0  0
   -3.9052    2.0274   -1.3170 C   0  0  0  0  0  0  0  0  0  0  0  0
   -5.0920    2.7673   -1.3166 C   0  0  0  0  0  0  0  0  0  0  0  0
   -5.6764    3.1585   -0.1088 C   0  0  0  0  0  0  0  0  0  0  0  0
   -5.0620    2.7995    1.0949 C   0  0  0  0  0  0  0  0  0  0  0  0
   -3.8789    2.0599    1.0997 C   0  0  0  0  0  0  0  0  0  0  0  0
   -6.8223    3.8848    0.0300 O   0  0  0  0  0  0  0  0  0  0  0  0
   -7.5026    4.2426   -1.1656 C   0  0  0  0  0  0  0  0  0  0  0  0
   -3.0429   -1.0626   -0.0178 H   0  0  0  0  0  0  0  0  0  0  0  0
   -0.6873    2.5525   -0.2152 H   0  0  0  0  0  0  0  0  0  0  0  0
    3.3788    0.1107    0.0137 H   0  0  0  0  0  0  0  0  0  0  0  0
    0.2434   -3.0501    1.4571 H   0  0  0  0  0  0  0  0  0  0  0  0
    1.0659   -5.3020    1.9995 H   0  0  0  0  0  0  0  0  0  0  0  0
    3.3347   -5.9914    1.2866 H   0  0  0  0  0  0  0  0  0  0  0  0
    6.5822   -4.3724   -1.4035 H   0  0  0  0  0  0  0  0  0  0  0  0
    5.4868   -2.6301   -2.8298 H   0  0  0  0  0  0  0  0  0  0  0  0
    3.3514   -1.6603   -2.0430 H   0  0  0  0  0  0  0  0  0  0  0  0
   -3.4619    1.7357   -2.2666 H   0  0  0  0  0  0  0  0  0  0  0  0
   -5.5282    3.0268   -2.2730 H   0  0  0  0  0  0  0  0  0  0  0  0
   -5.5103    3.1045    2.0377 H   0  0  0  0  0  0  0  0  0  0  0  0
   -3.4201    1.7983    2.0505 H   0  0  0  0  0  0  0  0  0  0  0  0
   -6.8748    4.8681   -1.8081 H   0  0  0  0  0  0  0  0  0  0  0  0
   -7.8506    3.3509   -1.6997 H   0  0  0  0  0  0  0  0  0  0  0  0
   -8.3821    4.8298   -0.8872 H   0  0  0  0  0  0  0  0  0  0  0  0
  1  2  1  0  0  0  0
  1 10  1  0  0  0  0
  2  3  2  0  0  0  0
  2 28  1  0  0  0  0
  3  4  1  0  0  0  0
  4  5  1  0  0  0  0
  4  7  2  0  0  0  0
  5  6  1  0  0  0  0
  6  1  2  0  0  0  0
  6 29  1  0  0  0  0
  7  8  1  0  0  0  0
  7 11  1  0  0  0  0
  8  9  2  0  0  0  0
  8 30  1  0  0  0  0
  9  5  1  0  0  0  0
 10 21  2  0  0  0  0
 11 12  2  0  0  0  0
 12 13  1  0  0  0  0
 12 31  1  0  0  0  0
 13 14  2  0  0  0  0
 13 32  1  0  0  0  0
 14 15  1  0  0  0  0
 14 33  1  0  0  0  0
 15 16  2  0  0  0  0
 15 17  1  0  0  0  0
 16 11  1  0  0  0  0
 17 18  2  0  0  0  0
 18 19  1  0  0  0  0
 18 34  1  0  0  0  0
 19 20  2  0  0  0  0
 19 35  1  0  0  0  0
 20 16  1  0  0  0  0
 20 36  1  0  0  0  0
 21 22  1  0  0  0  0
 21 37  1  0  0  0  0
 22 23  2  0  0  0  0
 22 38  1  0  0  0  0
 23 24  1  0  0  0  0
 23 26  1  0  0  0  0
 24 25  2  0  0  0  0
 24 39  1  0  0  0  0
 25 10  1  0  0  0  0
 25 40  1  0  0  0  0
 26 27  1  0  0  0  0
 27 41  1  0  0  0  0
 27 42  1  0  0  0  0
 27 43  1  0  0  0  0
M  END
>  <Mol_ID>
2384

>  <Formula>
C22H16N4O

>  <MolWeight>
352.38864

>  <Cat>
S7148

>  <Name>
ML347

>  <Synonyms>
LDN-193719

>  <Target>
TGF-beta/Smad

>  <Form>
free base

>  <CAS>
1062368-49-3

>  <URL>
http://selleckchem.com/products/ml347.html

$$$$
