MLN120B
 OpenBabel08302521343D

 41 44  0  0  0  0  0  0  0  0999 V2000
    0.3423   -4.6131   -1.1574 C   0  0  0  0  0  0  0  0  0  0  0  0
    1.3868   -4.8232   -0.2560 C   0  0  0  0  0  0  0  0  0  0  0  0
    1.4264   -6.0523    0.4216 C   0  0  0  0  0  0  0  0  0  0  0  0
    0.4318   -7.0033    0.2076 C   0  0  0  0  0  0  0  0  0  0  0  0
   -0.5853   -6.6955   -0.6654 C   0  0  0  0  0  0  0  0  0  0  0  0
   -0.6599   -5.5270   -1.3379 N   0  0  0  0  0  0  0  0  0  0  0  0
    2.5471   -3.9118   -0.0730 C   0  0  0  0  0  0  0  0  0  0  0  0
    3.6713   -4.4067   -0.0841 O   0  0  0  0  0  0  0  0  0  0  0  0
    2.2786   -2.5785    0.1604 N   0  0  0  0  0  0  0  0  0  0  0  0
    0.2267   -3.4234   -2.0598 C   0  0  0  0  0  0  0  0  0  0  0  0
    4.9162   -2.3285   -1.4824 N   0  0  0  0  0  0  0  0  0  0  0  0
    5.9836   -1.7720   -2.1430 C   0  0  0  0  0  0  0  0  0  0  0  0
    6.2386   -0.5436   -1.5436 C   0  0  0  0  0  0  0  0  0  0  0  0
    5.2814   -0.3784   -0.4932 C   0  0  0  0  0  0  0  0  0  0  0  0
    5.0560    0.6345    0.4552 C   0  0  0  0  0  0  0  0  0  0  0  0
    3.9609    0.5367    1.3200 C   0  0  0  0  0  0  0  0  0  0  0  0
    3.0539   -0.5219    1.2136 C   0  0  0  0  0  0  0  0  0  0  0  0
    3.2692   -1.5675    0.2892 C   0  0  0  0  0  0  0  0  0  0  0  0
    4.4185   -1.4780   -0.5202 C   0  0  0  0  0  0  0  0  0  0  0  0
    6.7379   -2.2482   -3.2075 C   0  0  0  0  0  0  0  0  0  0  0  0
    7.2842    0.2435   -2.0541 C   0  0  0  0  0  0  0  0  0  0  0  0
    7.9845   -0.2787   -3.1305 C   0  0  0  0  0  0  0  0  0  0  0  0
    7.7386   -1.4795   -3.6995 N   0  0  0  0  0  0  0  0  0  0  0  0
    1.9457   -0.6734    2.0176 O   0  0  0  0  0  0  0  0  0  0  0  0
    1.5187    0.4861    2.7217 C   0  0  0  0  0  0  0  0  0  0  0  0
    2.2523   -6.2781    1.0915 H   0  0  0  0  0  0  0  0  0  0  0  0
    0.4656   -7.9707    0.7041 H   0  0  0  0  0  0  0  0  0  0  0  0
   -1.3924   -7.3953   -0.8627 H   0  0  0  0  0  0  0  0  0  0  0  0
    1.3741   -2.3344    0.5519 H   0  0  0  0  0  0  0  0  0  0  0  0
   -0.0667   -3.7603   -3.0617 H   0  0  0  0  0  0  0  0  0  0  0  0
   -0.5479   -2.7473   -1.6870 H   0  0  0  0  0  0  0  0  0  0  0  0
    1.1644   -2.8787   -2.1765 H   0  0  0  0  0  0  0  0  0  0  0  0
    4.5419   -3.2527   -1.6508 H   0  0  0  0  0  0  0  0  0  0  0  0
    5.7281    1.4859    0.5170 H   0  0  0  0  0  0  0  0  0  0  0  0
    3.8497    1.3158    2.0663 H   0  0  0  0  0  0  0  0  0  0  0  0
    6.5669   -3.2046   -3.6868 H   0  0  0  0  0  0  0  0  0  0  0  0
    7.5241    1.2184   -1.6481 H   0  0  0  0  0  0  0  0  0  0  0  0
    8.7937    0.2861   -3.5890 H   0  0  0  0  0  0  0  0  0  0  0  0
    2.2424    0.7842    3.4877 H   0  0  0  0  0  0  0  0  0  0  0  0
    1.3164    1.3063    2.0254 H   0  0  0  0  0  0  0  0  0  0  0  0
    0.5842    0.2378    3.2322 H   0  0  0  0  0  0  0  0  0  0  0  0
  1  2  2  0  0  0  0
  1  6  1  0  0  0  0
  1 10  1  0  0  0  0
  2  3  1  0  0  0  0
  2  7  1  0  0  0  0
  3  4  2  0  0  0  0
  3 26  1  0  0  0  0
  4  5  1  0  0  0  0
  4 27  1  0  0  0  0
  5  6  2  0  0  0  0
  5 28  1  0  0  0  0
  7  8  2  0  0  0  0
  7  9  1  0  0  0  0
  9 18  1  0  0  0  0
  9 29  1  0  0  0  0
 10 30  1  0  0  0  0
 10 31  1  0  0  0  0
 10 32  1  0  0  0  0
 11 12  1  0  0  0  0
 11 19  1  0  0  0  0
 11 33  1  0  0  0  0
 12 13  2  0  0  0  0
 13 14  1  0  0  0  0
 14 15  1  0  0  0  0
 14 19  2  0  0  0  0
 15 16  2  0  0  0  0
 15 34  1  0  0  0  0
 16 17  1  0  0  0  0
 16 35  1  0  0  0  0
 17 18  2  0  0  0  0
 17 24  1  0  0  0  0
 18 19  1  0  0  0  0
 20 23  2  0  0  0  0
 20 12  1  0  0  0  0
 20 36  1  0  0  0  0
 21 22  2  0  0  0  0
 21 13  1  0  0  0  0
 21 37  1  0  0  0  0
 22 23  1  0  0  0  0
 22 38  1  0  0  0  0
 24 25  1  0  0  0  0
 25 39  1  0  0  0  0
 25 40  1  0  0  0  0
 25 41  1  0  0  0  0
M  END
>  <Mol_ID>
6583

>  <Formula>
C19H15ClN4O2

>  <MolWeight>
366.801

>  <Cat>
S7736

>  <Name>
MLN120B

>  <Synonyms>
ML120B

>  <Target>
I¦ÊB/IKK

>  <Form>
Free base

>  <CAS>
783348-36-7

>  <URL>
http://www.selleckchem.com/products/mln120b.html

$$$$
