MLT-748
 OpenBabel08302521353D

 52 55  0  0  0  0  0  0  0  0999 V2000
    0.7136    0.9334    2.3786 C   0  0  2  0  0  0  0  0  0  0  0  0
   -0.1586    2.1886    2.7280 C   0  0  2  0  0  0  0  0  0  0  0  0
    0.1363   -0.1604    1.6529 O   0  0  0  0  0  0  0  0  0  0  0  0
   -0.5377    2.8367    1.4968 O   0  0  0  0  0  0  0  0  0  0  0  0
    0.7036    3.1761    3.5373 C   0  0  0  0  0  0  0  0  0  0  0  0
   -0.6470    0.1407    0.5124 C   0  0  0  0  0  0  0  0  0  0  0  0
   -1.4672    3.9007    1.6500 C   0  0  0  0  0  0  0  0  0  0  0  0
    3.6750    1.0134    3.2834 N   0  0  0  0  0  0  0  0  0  0  0  0
    4.1823    0.7857    2.0320 C   0  0  0  0  0  0  0  0  0  0  0  0
    3.5680   -0.1814    1.2751 N   0  0  0  0  0  0  0  0  0  0  0  0
    5.2002    1.3897    1.7055 O   0  0  0  0  0  0  0  0  0  0  0  0
    1.3515    0.2949    3.6147 C   0  0  0  0  0  0  0  0  0  0  0  0
    0.4627   -0.3332    4.5162 N   0  0  0  0  0  0  0  0  0  0  0  0
    2.6547    0.3863    3.9595 C   0  0  0  0  0  0  0  0  0  0  0  0
    0.9136   -0.8373    5.7473 C   0  0  0  0  0  0  0  0  0  0  0  0
   -0.8865   -0.4947    4.4055 N   0  0  0  0  0  0  0  0  0  0  0  0
    3.0031   -0.1347    5.3229 C   0  0  0  0  0  0  0  0  0  0  0  0
    2.2059   -0.7043    6.1641 N   0  0  0  0  0  0  0  0  0  0  0  0
   -0.1769   -1.4073    6.3622 C   0  0  0  0  0  0  0  0  0  0  0  0
   -1.2455   -1.1765    5.4913 C   0  0  0  0  0  0  0  0  0  0  0  0
    3.9426   -0.3165   -0.0705 C   0  0  0  0  0  0  0  0  0  0  0  0
    3.2522    0.3768   -1.0581 C   0  0  0  0  0  0  0  0  0  0  0  0
    4.9522   -1.1906   -0.4404 C   0  0  0  0  0  0  0  0  0  0  0  0
    3.6171    0.1856   -2.3924 C   0  0  0  0  0  0  0  0  0  0  0  0
    5.2976   -1.4240   -1.7254 N   0  0  0  0  0  0  0  0  0  0  0  0
    4.6303   -0.7227   -2.6881 C   0  0  0  0  0  0  0  0  0  0  0  0
    4.9785   -0.9310   -4.0635 N   0  0  0  0  0  0  0  0  0  0  0  0
    5.8974   -1.8595   -4.4573 N   0  0  0  0  0  0  0  0  0  0  0  0
    4.3969   -0.2163   -5.0820 N   0  0  0  0  0  0  0  0  0  0  0  0
    5.8945   -1.7237   -5.7827 C   0  0  0  0  0  0  0  0  0  0  0  0
    4.9997   -0.7208   -6.1581 C   0  0  0  0  0  0  0  0  0  0  0  0
    1.4799    1.3315    1.7071 H   0  0  0  0  0  0  0  0  0  0  0  0
   -1.0647    1.9031    3.2723 H   0  0  0  0  0  0  0  0  0  0  0  0
    0.1617    4.0891    3.7904 H   0  0  0  0  0  0  0  0  0  0  0  0
    1.0597    2.7511    4.4790 H   0  0  0  0  0  0  0  0  0  0  0  0
    1.5746    3.4828    2.9429 H   0  0  0  0  0  0  0  0  0  0  0  0
   -0.3267    1.0485   -0.0001 H   0  0  0  0  0  0  0  0  0  0  0  0
   -0.5298   -0.6859   -0.1965 H   0  0  0  0  0  0  0  0  0  0  0  0
   -1.7045    0.1923    0.7887 H   0  0  0  0  0  0  0  0  0  0  0  0
   -2.3583    3.5723    2.1918 H   0  0  0  0  0  0  0  0  0  0  0  0
   -1.0061    4.7541    2.1530 H   0  0  0  0  0  0  0  0  0  0  0  0
   -1.7640    4.2331    0.6516 H   0  0  0  0  0  0  0  0  0  0  0  0
    4.4004    1.4492    3.8439 H   0  0  0  0  0  0  0  0  0  0  0  0
    2.5699   -0.2268    1.4086 H   0  0  0  0  0  0  0  0  0  0  0  0
    4.0560   -0.0059    5.6245 H   0  0  0  0  0  0  0  0  0  0  0  0
   -0.1852   -1.9033    7.3214 H   0  0  0  0  0  0  0  0  0  0  0  0
   -2.2830   -1.4621    5.6098 H   0  0  0  0  0  0  0  0  0  0  0  0
    2.4690    1.0852   -0.8088 H   0  0  0  0  0  0  0  0  0  0  0  0
    5.4965   -1.7685    0.2996 H   0  0  0  0  0  0  0  0  0  0  0  0
    3.0997    0.7424   -3.1694 H   0  0  0  0  0  0  0  0  0  0  0  0
    6.5327   -2.3473   -6.3916 H   0  0  0  0  0  0  0  0  0  0  0  0
    4.7573   -0.3442   -7.1425 H   0  0  0  0  0  0  0  0  0  0  0  0
  1  3  1  0  0  0  0
  1 12  1  0  0  0  0
  1 32  1  6  0  0  0
  2  5  1  0  0  0  0
  2 33  1  1  0  0  0
  2  4  1  0  0  0  0
  2  1  1  0  0  0  0
  3  6  1  0  0  0  0
  4  7  1  0  0  0  0
  5 34  1  0  0  0  0
  5 35  1  0  0  0  0
  5 36  1  0  0  0  0
  6 37  1  0  0  0  0
  6 38  1  0  0  0  0
  6 39  1  0  0  0  0
  7 40  1  0  0  0  0
  7 41  1  0  0  0  0
  7 42  1  0  0  0  0
  8  9  1  0  0  0  0
  8 14  1  0  0  0  0
  8 43  1  0  0  0  0
  9 10  1  0  0  0  0
  9 11  2  0  0  0  0
 10 21  1  0  0  0  0
 10 44  1  0  0  0  0
 12 13  1  0  0  0  0
 12 14  2  0  0  0  0
 13 15  1  0  0  0  0
 13 16  1  0  0  0  0
 14 17  1  0  0  0  0
 15 18  1  0  0  0  0
 15 19  2  0  0  0  0
 16 20  2  0  0  0  0
 17 18  2  0  0  0  0
 17 45  1  0  0  0  0
 19 20  1  0  0  0  0
 19 46  1  0  0  0  0
 20 47  1  0  0  0  0
 21 22  2  0  0  0  0
 21 23  1  0  0  0  0
 22 24  1  0  0  0  0
 22 48  1  0  0  0  0
 23 25  2  0  0  0  0
 23 49  1  0  0  0  0
 24 26  2  0  0  0  0
 24 50  1  0  0  0  0
 25 26  1  0  0  0  0
 26 27  1  0  0  0  0
 27 28  1  0  0  0  0
 27 29  1  0  0  0  0
 28 30  2  0  0  0  0
 29 31  2  0  0  0  0
 30 31  1  0  0  0  0
 30 51  1  0  0  0  0
 31 52  1  0  0  0  0
M  END
>  <Mol_ID>
6747

>  <Formula>
C19H19Cl2N9O3

>  <MolWeight>
492.31866

>  <Cat>
S8898

>  <Name>
MLT-748

>  <Synonyms>
N/A

>  <Target>
MALT

>  <Form>
Free base

>  <CAS>
1832578-30-9

>  <URL>
http://www.selleckchem.com/products/mlt-748.html

$$$$
