MMP-9-IN-1
 OpenBabel08302521243D

 42 43  0  0  0  0  0  0  0  0999 V2000
    0.8715    0.1816   -0.8195 S   0  0  0  0  0  0  0  0  0  0  0  0
    7.9178   -8.3394   -1.3531 F   0  0  0  0  0  0  0  0  0  0  0  0
    5.7470   -8.1855   -1.3181 F   0  0  0  0  0  0  0  0  0  0  0  0
    6.9897   -6.6540   -0.2109 O   0  0  0  0  0  0  0  0  0  0  0  0
   -2.1364    3.9668   -0.6555 O   0  0  0  0  0  0  0  0  0  0  0  0
    2.2846   -2.3387   -0.8785 O   0  0  0  0  0  0  0  0  0  0  0  0
    1.6823    2.6889   -0.5173 N   0  0  0  0  0  0  0  0  0  0  0  0
   -0.6140    2.2770   -0.7398 N   0  0  0  0  0  0  0  0  0  0  0  0
    4.3279   -1.7340    0.0289 N   0  0  0  0  0  0  0  0  0  0  0  0
    2.5910    4.9388   -0.2837 C   0  0  0  0  0  0  0  0  0  0  0  0
    3.5818    4.8708   -1.4525 C   0  0  0  0  0  0  0  0  0  0  0  0
    1.3927    4.0318   -0.4401 C   0  0  0  0  0  0  0  0  0  0  0  0
    2.9872    5.3266   -2.7771 C   0  0  0  0  0  0  0  0  0  0  0  0
    0.1458    4.5260   -0.4833 C   0  0  0  0  0  0  0  0  0  0  0  0
    0.6844    1.8892   -0.6708 C   0  0  0  0  0  0  0  0  0  0  0  0
   -0.9748    3.5824   -0.6339 C   0  0  0  0  0  0  0  0  0  0  0  0
    4.9927   -2.9780   -0.1023 C   0  0  0  0  0  0  0  0  0  0  0  0
    2.5886   -0.0334   -0.2362 C   0  0  0  0  0  0  0  0  0  0  0  0
    3.0304   -1.4832   -0.4080 C   0  0  0  0  0  0  0  0  0  0  0  0
    4.5748   -3.9641   -1.0009 C   0  0  0  0  0  0  0  0  0  0  0  0
    6.1064   -3.2389    0.7001 C   0  0  0  0  0  0  0  0  0  0  0  0
    6.2992   -5.4755   -0.2442 C   0  0  0  0  0  0  0  0  0  0  0  0
    5.2060   -5.2096   -1.0608 C   0  0  0  0  0  0  0  0  0  0  0  0
    6.7423   -4.4882    0.6398 C   0  0  0  0  0  0  0  0  0  0  0  0
    6.8881   -7.4556   -1.3783 C   0  0  0  0  0  0  0  0  0  0  0  0
   -1.3383    1.5842   -0.8500 H   0  0  0  0  0  0  0  0  0  0  0  0
    4.7699   -1.0384    0.6171 H   0  0  0  0  0  0  0  0  0  0  0  0
    2.2740    5.9794   -0.1421 H   0  0  0  0  0  0  0  0  0  0  0  0
    3.1164    4.6520    0.6363 H   0  0  0  0  0  0  0  0  0  0  0  0
    4.4403    5.5099   -1.2143 H   0  0  0  0  0  0  0  0  0  0  0  0
    3.9725    3.8520   -1.5639 H   0  0  0  0  0  0  0  0  0  0  0  0
    2.5383    6.3205   -2.6864 H   0  0  0  0  0  0  0  0  0  0  0  0
    3.7694    5.3764   -3.5415 H   0  0  0  0  0  0  0  0  0  0  0  0
    2.2205    4.6307   -3.1317 H   0  0  0  0  0  0  0  0  0  0  0  0
   -0.0937    5.5775   -0.4146 H   0  0  0  0  0  0  0  0  0  0  0  0
    3.2699    0.6003   -0.8125 H   0  0  0  0  0  0  0  0  0  0  0  0
    2.6409    0.2316    0.8243 H   0  0  0  0  0  0  0  0  0  0  0  0
    3.7463   -3.7967   -1.6829 H   0  0  0  0  0  0  0  0  0  0  0  0
    6.4777   -2.5018    1.4068 H   0  0  0  0  0  0  0  0  0  0  0  0
    4.7915   -5.9480   -1.7409 H   0  0  0  0  0  0  0  0  0  0  0  0
    7.5876   -4.6949    1.2928 H   0  0  0  0  0  0  0  0  0  0  0  0
    6.9375   -6.8882   -2.3146 H   0  0  0  0  0  0  0  0  0  0  0  0
  1 15  1  0  0  0  0
  1 18  1  0  0  0  0
  2 25  1  0  0  0  0
  3 25  1  0  0  0  0
  4 22  1  0  0  0  0
  4 25  1  0  0  0  0
  5 16  2  0  0  0  0
  6 19  2  0  0  0  0
  7 12  1  0  0  0  0
  7 15  2  0  0  0  0
  8 15  1  0  0  0  0
  8 16  1  0  0  0  0
  8 26  1  0  0  0  0
  9 17  1  0  0  0  0
  9 19  1  0  0  0  0
  9 27  1  0  0  0  0
 10 11  1  0  0  0  0
 10 12  1  0  0  0  0
 10 28  1  0  0  0  0
 10 29  1  0  0  0  0
 11 13  1  0  0  0  0
 11 30  1  0  0  0  0
 11 31  1  0  0  0  0
 12 14  2  0  0  0  0
 13 32  1  0  0  0  0
 13 33  1  0  0  0  0
 13 34  1  0  0  0  0
 14 16  1  0  0  0  0
 14 35  1  0  0  0  0
 17 20  2  0  0  0  0
 17 21  1  0  0  0  0
 18 19  1  0  0  0  0
 18 36  1  0  0  0  0
 18 37  1  0  0  0  0
 20 23  1  0  0  0  0
 20 38  1  0  0  0  0
 21 24  2  0  0  0  0
 21 39  1  0  0  0  0
 22 23  2  0  0  0  0
 22 24  1  0  0  0  0
 23 40  1  0  0  0  0
 24 41  1  0  0  0  0
 25 42  1  0  0  0  0
M  END
>  <Mol_ID>
4993

>  <Formula>
C16H17F2N3O3S

>  <MolWeight>
369.3862864

>  <Cat>
S0769

>  <Name>
MMP-9-IN-1

>  <Synonyms>
OUN87710

>  <Target>
MMP

>  <Form>
Free Base

>  <CAS>
502887-71-0

>  <URL>
http://www.selleckchem.com/products/mmp-9-in-1.html

$$$$
