Moclobemide.cdx
 OpenBabel08302521593D

 35 36  0  0  0  0  0  0  0  0999 V2000
    1.2281    0.5258    1.0853 C   0  0  0  0  0  0  0  0  0  0  0  0
    0.3961   -0.5486    1.6936 C   0  0  0  0  0  0  0  0  0  0  0  0
   -0.0699   -1.6399    0.9509 C   0  0  0  0  0  0  0  0  0  0  0  0
   -0.9321   -2.5712    1.5381 C   0  0  0  0  0  0  0  0  0  0  0  0
   -1.3305   -2.4190    2.8664 C   0  0  0  0  0  0  0  0  0  0  0  0
   -0.8606   -1.3432    3.6164 C   0  0  0  0  0  0  0  0  0  0  0  0
   -0.0017   -0.4084    3.0317 C   0  0  0  0  0  0  0  0  0  0  0  0
    1.1798    1.6643    1.5464 O   0  0  0  0  0  0  0  0  0  0  0  0
    2.0299    0.1843    0.0145 N   0  0  0  0  0  0  0  0  0  0  0  0
    2.8085    1.1772   -0.7188 C   0  0  0  0  0  0  0  0  0  0  0  0
    3.9079    1.8354    0.1414 C   0  0  0  0  0  0  0  0  0  0  0  0
    5.2202    4.3621    1.3582 C   0  0  0  0  0  0  0  0  0  0  0  0
    5.8184    3.2990    0.4147 C   0  0  0  0  0  0  0  0  0  0  0  0
    4.8423    2.7414   -0.5597 N   0  0  0  0  0  0  0  0  0  0  0  0
    4.1890    3.8886   -1.2303 C   0  0  0  0  0  0  0  0  0  0  0  0
    3.6332    4.9610   -0.2771 C   0  0  0  0  0  0  0  0  0  0  0  0
    4.6472    5.4440    0.6146 O   0  0  0  0  0  0  0  0  0  0  0  0
    0.1864   -1.7591   -0.0979 H   0  0  0  0  0  0  0  0  0  0  0  0
   -1.3121   -3.4045    0.9525 H   0  0  0  0  0  0  0  0  0  0  0  0
   -2.0194   -3.1329    3.3127 H   0  0  0  0  0  0  0  0  0  0  0  0
   -1.1761   -1.2198    4.6497 H   0  0  0  0  0  0  0  0  0  0  0  0
    0.3442    0.4399    3.6195 H   0  0  0  0  0  0  0  0  0  0  0  0
    2.1129   -0.7843   -0.2677 H   0  0  0  0  0  0  0  0  0  0  0  0
    3.2512    0.6642   -1.5779 H   0  0  0  0  0  0  0  0  0  0  0  0
    2.1029    1.9288   -1.0888 H   0  0  0  0  0  0  0  0  0  0  0  0
    3.4359    2.3465    0.9848 H   0  0  0  0  0  0  0  0  0  0  0  0
    4.5008    1.0195    0.5740 H   0  0  0  0  0  0  0  0  0  0  0  0
    4.4597    3.9427    2.0265 H   0  0  0  0  0  0  0  0  0  0  0  0
    6.0086    4.7775    1.9932 H   0  0  0  0  0  0  0  0  0  0  0  0
    6.6286    3.7653   -0.1606 H   0  0  0  0  0  0  0  0  0  0  0  0
    6.2805    2.4938    0.9974 H   0  0  0  0  0  0  0  0  0  0  0  0
    4.9540    4.3649   -1.8608 H   0  0  0  0  0  0  0  0  0  0  0  0
    3.4108    3.5542   -1.9250 H   0  0  0  0  0  0  0  0  0  0  0  0
    3.2814    5.8199   -0.8592 H   0  0  0  0  0  0  0  0  0  0  0  0
    2.7842    4.5860    0.3042 H   0  0  0  0  0  0  0  0  0  0  0  0
  1  2  1  0  0  0  0
  1  8  2  0  0  0  0
  1  9  1  0  0  0  0
  2  3  2  0  0  0  0
  2  7  1  0  0  0  0
  3  4  1  0  0  0  0
  3 18  1  0  0  0  0
  4  5  2  0  0  0  0
  4 19  1  0  0  0  0
  5  6  1  0  0  0  0
  5 20  1  0  0  0  0
  6  7  2  0  0  0  0
  6 21  1  0  0  0  0
  7 22  1  0  0  0  0
  9 10  1  0  0  0  0
  9 23  1  0  0  0  0
 10 11  1  0  0  0  0
 10 24  1  0  0  0  0
 10 25  1  0  0  0  0
 11 14  1  0  0  0  0
 11 26  1  0  0  0  0
 11 27  1  0  0  0  0
 12 13  1  0  0  0  0
 12 17  1  0  0  0  0
 12 28  1  0  0  0  0
 12 29  1  0  0  0  0
 13 14  1  0  0  0  0
 13 30  1  0  0  0  0
 13 31  1  0  0  0  0
 14 15  1  0  0  0  0
 15 16  1  0  0  0  0
 15 32  1  0  0  0  0
 15 33  1  0  0  0  0
 16 17  1  0  0  0  0
 16 34  1  0  0  0  0
 16 35  1  0  0  0  0
M  END
>  <Mol_ID>
1009

>  <Formula>
C13H17ClN2O2

>  <MolWeight>
268.73928

>  <Cat>
S3212

>  <Name>
Moclobemide (Ro 111163)

>  <Synonyms>
N/A

>  <Target>
MAO

>  <Form>
free base

>  <CAS>
71320-77-9

>  <URL>
http://selleckchem.com/products/moclobemide.html

$$$$
