Molnupiravir (EIDD-2801)
 OpenBabel08302521233D

 42 43  0  0  0  0  0  0  0  0999 V2000
   -0.1962   -0.7787   -0.3279 C   0  0  1  0  0  0  0  0  0  0  0  0
   -0.5999    0.6701   -0.5357 C   0  0  2  0  0  0  0  0  0  0  0  0
    0.4348    1.3972    0.3303 C   0  0  1  0  0  0  0  0  0  0  0  0
    1.6368    0.6108    0.3360 O   0  0  0  0  0  0  0  0  0  0  0  0
    1.3261   -0.7056   -0.1869 C   0  0  2  0  0  0  0  0  0  0  0  0
    2.0479   -0.9445   -1.5227 C   0  0  0  0  0  0  0  0  0  0  0  0
    3.4752   -0.7853   -1.4051 O   0  0  0  0  0  0  0  0  0  0  0  0
    4.1355   -1.7703   -0.7403 C   0  0  0  0  0  0  0  0  0  0  0  0
    5.6314   -1.5227   -0.7153 C   0  0  0  0  0  0  0  0  0  0  0  0
    3.6015   -2.7568   -0.2463 O   0  0  0  0  0  0  0  0  0  0  0  0
   -0.8388   -1.2247    0.8840 O   0  0  0  0  0  0  0  0  0  0  0  0
   -1.9421    0.9132   -0.1125 O   0  0  0  0  0  0  0  0  0  0  0  0
    0.6695    2.7679   -0.1273 N   0  0  0  0  0  0  0  0  0  0  0  0
   -0.1011    3.7673    0.4464 C   0  0  0  0  0  0  0  0  0  0  0  0
   -0.2640    4.9612   -0.1260 C   0  0  0  0  0  0  0  0  0  0  0  0
    0.3869    5.2108   -1.4240 C   0  0  0  0  0  0  0  0  0  0  0  0
    1.2850    4.2639   -1.8168 N   0  0  0  0  0  0  0  0  0  0  0  0
    1.3528    2.9898   -1.3166 C   0  0  0  0  0  0  0  0  0  0  0  0
    1.9214    2.1245   -1.9794 O   0  0  0  0  0  0  0  0  0  0  0  0
    0.1974    6.1995   -2.2328 N   0  0  0  0  0  0  0  0  0  0  0  0
   -0.8063    7.0593   -1.7710 O   0  0  0  0  0  0  0  0  0  0  0  0
    6.2115   -1.6013   -2.1229 C   0  0  0  0  0  0  0  0  0  0  0  0
    5.9718   -0.1999   -0.0384 C   0  0  0  0  0  0  0  0  0  0  0  0
   -0.5462   -1.4349   -1.1303 H   0  0  0  0  0  0  0  0  0  0  0  0
   -0.5105    0.9463   -1.5901 H   0  0  0  0  0  0  0  0  0  0  0  0
    0.0998    1.4365    1.3753 H   0  0  0  0  0  0  0  0  0  0  0  0
    1.6776   -1.4228    0.5606 H   0  0  0  0  0  0  0  0  0  0  0  0
    1.8232   -1.9417   -1.9215 H   0  0  0  0  0  0  0  0  0  0  0  0
    1.7177   -0.2308   -2.2812 H   0  0  0  0  0  0  0  0  0  0  0  0
    6.0723   -2.3314   -0.1184 H   0  0  0  0  0  0  0  0  0  0  0  0
   -0.1863   -1.2242    1.6084 H   0  0  0  0  0  0  0  0  0  0  0  0
   -2.1635    0.1778    0.4974 H   0  0  0  0  0  0  0  0  0  0  0  0
   -0.6254    3.5279    1.3668 H   0  0  0  0  0  0  0  0  0  0  0  0
   -0.9025    5.7251    0.2952 H   0  0  0  0  0  0  0  0  0  0  0  0
    1.7074    4.3934   -2.7228 H   0  0  0  0  0  0  0  0  0  0  0  0
   -0.9436    7.6480   -2.5370 H   0  0  0  0  0  0  0  0  0  0  0  0
    5.8578   -0.7759   -2.7505 H   0  0  0  0  0  0  0  0  0  0  0  0
    7.3056   -1.5593   -2.0941 H   0  0  0  0  0  0  0  0  0  0  0  0
    5.9208   -2.5368   -2.6131 H   0  0  0  0  0  0  0  0  0  0  0  0
    5.5489   -0.1592    0.9710 H   0  0  0  0  0  0  0  0  0  0  0  0
    7.0575   -0.0762    0.0446 H   0  0  0  0  0  0  0  0  0  0  0  0
    5.5776    0.6554   -0.5972 H   0  0  0  0  0  0  0  0  0  0  0  0
  1  2  1  0  0  0  0
  1 11  1  0  0  0  0
  1 24  1  6  0  0  0
  2  3  1  0  0  0  0
  2 12  1  0  0  0  0
  2 25  1  6  0  0  0
  3  4  1  0  0  0  0
  3 26  1  1  0  0  0
  3 13  1  0  0  0  0
  4  5  1  0  0  0  0
  5  1  1  0  0  0  0
  5 27  1  1  0  0  0
  5  6  1  0  0  0  0
  6  7  1  0  0  0  0
  6 28  1  0  0  0  0
  6 29  1  0  0  0  0
  7  8  1  0  0  0  0
  8  9  1  0  0  0  0
  8 10  2  0  0  0  0
  9 22  1  0  0  0  0
  9 23  1  0  0  0  0
  9 30  1  0  0  0  0
 11 31  1  0  0  0  0
 12 32  1  0  0  0  0
 13 14  1  0  0  0  0
 14 15  2  0  0  0  0
 14 33  1  0  0  0  0
 15 16  1  0  0  0  0
 15 34  1  0  0  0  0
 16 17  1  0  0  0  0
 16 20  2  0  0  0  0
 17 18  1  0  0  0  0
 17 35  1  0  0  0  0
 18 13  1  0  0  0  0
 18 19  2  0  0  0  0
 20 21  1  0  0  0  0
 21 36  1  0  0  0  0
 22 37  1  0  0  0  0
 22 38  1  0  0  0  0
 22 39  1  0  0  0  0
 23 40  1  0  0  0  0
 23 41  1  0  0  0  0
 23 42  1  0  0  0  0
M  END
>  <Mol_ID>
4910

>  <Formula>
C13H19N3O7

>  <MolWeight>
329.30586

>  <Cat>
S8969

>  <Name>
Molnupiravir (EIDD-2801)

>  <Synonyms>
MK-4482

>  <Target>
COVID-19,SARS-CoV

>  <Form>
Free Base

>  <CAS>
2349386-89-4

>  <URL>
http://www.selleckchem.com/products/eidd-2801.html

$$$$
