Monomethyl glutarate
 OpenBabel08302520393D

 20 19  0  0  0  0  0  0  0  0999 V2000
    1.0230    0.1710   -0.2450 C   0  0  0  0  0  0  0  0  0  0  0  0
    0.3246    0.6218    1.0171 C   0  0  0  0  0  0  0  0  0  0  0  0
    1.2978   -1.1581   -0.1685 O   0  0  0  0  0  0  0  0  0  0  0  0
    1.2915    0.9073   -1.1837 O   0  0  0  0  0  0  0  0  0  0  0  0
   -0.5170    1.8793    0.8024 C   0  0  0  0  0  0  0  0  0  0  0  0
    1.9259   -1.7543   -1.3084 C   0  0  0  0  0  0  0  0  0  0  0  0
   -1.6336    1.6860   -0.2217 C   0  0  0  0  0  0  0  0  0  0  0  0
   -2.4380    2.9512   -0.3653 C   0  0  0  0  0  0  0  0  0  0  0  0
   -1.9213    3.8167   -1.2642 O   0  0  0  0  0  0  0  0  0  0  0  0
   -3.4419    3.1961    0.2867 O   0  0  0  0  0  0  0  0  0  0  0  0
   -0.3181   -0.1864    1.3844 H   0  0  0  0  0  0  0  0  0  0  0  0
    1.0953    0.8190    1.7704 H   0  0  0  0  0  0  0  0  0  0  0  0
   -0.9584    2.1730    1.7633 H   0  0  0  0  0  0  0  0  0  0  0  0
    0.1275    2.7126    0.4942 H   0  0  0  0  0  0  0  0  0  0  0  0
    2.0338   -1.0762   -2.1598 H   0  0  0  0  0  0  0  0  0  0  0  0
    2.9128   -2.1166   -1.0083 H   0  0  0  0  0  0  0  0  0  0  0  0
    1.3204   -2.6105   -1.6197 H   0  0  0  0  0  0  0  0  0  0  0  0
   -1.2522    1.4000   -1.2081 H   0  0  0  0  0  0  0  0  0  0  0  0
   -2.3128    0.8827    0.0853 H   0  0  0  0  0  0  0  0  0  0  0  0
   -1.1059    3.4982   -1.6988 H   0  0  0  0  0  0  0  0  0  0  0  0
  1  2  1  0  0  0  0
  1  3  1  0  0  0  0
  1  4  2  0  0  0  0
  2  5  1  0  0  0  0
  2 11  1  0  0  0  0
  2 12  1  0  0  0  0
  3  6  1  0  0  0  0
  5  7  1  0  0  0  0
  5 13  1  0  0  0  0
  5 14  1  0  0  0  0
  6 15  1  0  0  0  0
  6 16  1  0  0  0  0
  6 17  1  0  0  0  0
  7  8  1  0  0  0  0
  7 18  1  0  0  0  0
  7 19  1  0  0  0  0
  8  9  1  0  0  0  0
  8 10  2  0  0  0  0
  9 20  1  0  0  0  0
M  END
>  <Mol_ID>
3548

>  <Formula>
C6H10O4

>  <MolWeight>
146.1412

>  <Cat>
S6072

>  <Name>
Monomethyl glutarate

>  <Synonyms>
5-Methoxy-5-oxopentanoic acid

>  <Target>
Others

>  <Form>
free base

>  <CAS>
1501-27-5

>  <URL>
http://www.selleck.cn/products/monomethyl-glutarate.html

$$$$
