Monomyristin
 OpenBabel08302520383D

 55 54  0  0  0  0  0  0  0  0999 V2000
    3.8426    1.0788    4.4547 O   0  0  0  0  0  0  0  0  0  0  0  0
    3.2934    2.3241    4.9588 C   0  0  0  0  0  0  0  0  0  0  0  0
    2.4623    2.1655    6.2393 C   0  0  3  0  0  0  0  0  0  0  0  0
    3.2563    1.5958    7.2913 O   0  0  0  0  0  0  0  0  0  0  0  0
    1.9315    3.5178    6.7313 C   0  0  0  0  0  0  0  0  0  0  0  0
    3.0013    4.4014    7.0692 O   0  0  0  0  0  0  0  0  0  0  0  0
    2.9735    0.2683    3.7873 C   0  0  0  0  0  0  0  0  0  0  0  0
    3.7103   -0.7333    2.9251 C   0  0  0  0  0  0  0  0  0  0  0  0
    4.5525   -0.0269    1.8706 C   0  0  0  0  0  0  0  0  0  0  0  0
    5.2432   -1.0165    0.9203 C   0  0  0  0  0  0  0  0  0  0  0  0
    6.0905   -0.2769   -0.1189 C   0  0  0  0  0  0  0  0  0  0  0  0
    6.8021   -1.2489   -1.0610 C   0  0  0  0  0  0  0  0  0  0  0  0
    7.6500   -0.5032   -2.0943 C   0  0  0  0  0  0  0  0  0  0  0  0
    8.3565   -1.4759   -3.0402 C   0  0  0  0  0  0  0  0  0  0  0  0
    9.2119   -0.7336   -4.0695 C   0  0  0  0  0  0  0  0  0  0  0  0
    9.9153   -1.7097   -5.0146 C   0  0  0  0  0  0  0  0  0  0  0  0
   10.7731   -0.9734   -6.0463 C   0  0  0  0  0  0  0  0  0  0  0  0
   11.4750   -1.9554   -6.9869 C   0  0  0  0  0  0  0  0  0  0  0  0
   12.3251   -1.2296   -8.0300 C   0  0  0  0  0  0  0  0  0  0  0  0
   13.0209   -2.2101   -8.9596 C   0  0  0  0  0  0  0  0  0  0  0  0
    1.7529    0.3539    3.8526 O   0  0  0  0  0  0  0  0  0  0  0  0
    4.1618    2.9644    5.1450 H   0  0  0  0  0  0  0  0  0  0  0  0
    2.7050    2.7967    4.1656 H   0  0  0  0  0  0  0  0  0  0  0  0
    1.6116    1.4935    6.0763 H   0  0  0  0  0  0  0  0  0  0  0  0
    3.2718    0.6352    7.1301 H   0  0  0  0  0  0  0  0  0  0  0  0
    1.3143    4.0033    5.9704 H   0  0  0  0  0  0  0  0  0  0  0  0
    1.3296    3.3853    7.6365 H   0  0  0  0  0  0  0  0  0  0  0  0
    3.5211    3.9293    7.7489 H   0  0  0  0  0  0  0  0  0  0  0  0
    4.3157   -1.3846    3.5644 H   0  0  0  0  0  0  0  0  0  0  0  0
    2.9577   -1.3630    2.4381 H   0  0  0  0  0  0  0  0  0  0  0  0
    3.9199    0.6529    1.2869 H   0  0  0  0  0  0  0  0  0  0  0  0
    5.3156    0.5944    2.3528 H   0  0  0  0  0  0  0  0  0  0  0  0
    5.8794   -1.6967    1.4986 H   0  0  0  0  0  0  0  0  0  0  0  0
    4.4891   -1.6290    0.4129 H   0  0  0  0  0  0  0  0  0  0  0  0
    5.4503    0.3964   -0.7019 H   0  0  0  0  0  0  0  0  0  0  0  0
    6.8340    0.3472    0.3916 H   0  0  0  0  0  0  0  0  0  0  0  0
    7.4427   -1.9218   -0.4782 H   0  0  0  0  0  0  0  0  0  0  0  0
    6.0602   -1.8721   -1.5750 H   0  0  0  0  0  0  0  0  0  0  0  0
    7.0113    0.1741   -2.6745 H   0  0  0  0  0  0  0  0  0  0  0  0
    8.3947    0.1166   -1.5799 H   0  0  0  0  0  0  0  0  0  0  0  0
    8.9905   -2.1570   -2.4593 H   0  0  0  0  0  0  0  0  0  0  0  0
    7.6108   -2.0907   -3.5575 H   0  0  0  0  0  0  0  0  0  0  0  0
    8.5784   -0.0521   -4.6502 H   0  0  0  0  0  0  0  0  0  0  0  0
    9.9590   -0.1195   -3.5525 H   0  0  0  0  0  0  0  0  0  0  0  0
   10.5463   -2.3927   -4.4329 H   0  0  0  0  0  0  0  0  0  0  0  0
    9.1667   -2.3230   -5.5312 H   0  0  0  0  0  0  0  0  0  0  0  0
   10.1414   -0.2926   -6.6299 H   0  0  0  0  0  0  0  0  0  0  0  0
   11.5214   -0.3589   -5.5311 H   0  0  0  0  0  0  0  0  0  0  0  0
   12.1105   -2.6319   -6.4022 H   0  0  0  0  0  0  0  0  0  0  0  0
   10.7258   -2.5752   -7.4946 H   0  0  0  0  0  0  0  0  0  0  0  0
   11.6942   -0.5564   -8.6216 H   0  0  0  0  0  0  0  0  0  0  0  0
   13.0805   -0.6106   -7.5303 H   0  0  0  0  0  0  0  0  0  0  0  0
   12.2935   -2.8373   -9.4875 H   0  0  0  0  0  0  0  0  0  0  0  0
   13.6088   -1.6710   -9.7095 H   0  0  0  0  0  0  0  0  0  0  0  0
   13.6981   -2.8649   -8.4037 H   0  0  0  0  0  0  0  0  0  0  0  0
  1  2  1  0  0  0  0
  1  7  1  0  0  0  0
  2  3  1  0  0  0  0
  2 22  1  0  0  0  0
  2 23  1  0  0  0  0
  3  4  1  0  0  0  0
  3  5  1  0  0  0  0
  3 24  1  0  0  0  0
  4 25  1  0  0  0  0
  5  6  1  0  0  0  0
  5 26  1  0  0  0  0
  5 27  1  0  0  0  0
  6 28  1  0  0  0  0
  7  8  1  0  0  0  0
  7 21  2  0  0  0  0
  8  9  1  0  0  0  0
  8 29  1  0  0  0  0
  8 30  1  0  0  0  0
  9 10  1  0  0  0  0
  9 31  1  0  0  0  0
  9 32  1  0  0  0  0
 10 11  1  0  0  0  0
 10 33  1  0  0  0  0
 10 34  1  0  0  0  0
 11 12  1  0  0  0  0
 11 35  1  0  0  0  0
 11 36  1  0  0  0  0
 12 13  1  0  0  0  0
 12 37  1  0  0  0  0
 12 38  1  0  0  0  0
 13 14  1  0  0  0  0
 13 39  1  0  0  0  0
 13 40  1  0  0  0  0
 14 15  1  0  0  0  0
 14 41  1  0  0  0  0
 14 42  1  0  0  0  0
 15 16  1  0  0  0  0
 15 43  1  0  0  0  0
 15 44  1  0  0  0  0
 16 17  1  0  0  0  0
 16 45  1  0  0  0  0
 16 46  1  0  0  0  0
 17 18  1  0  0  0  0
 17 47  1  0  0  0  0
 17 48  1  0  0  0  0
 18 19  1  0  0  0  0
 18 49  1  0  0  0  0
 18 50  1  0  0  0  0
 19 20  1  0  0  0  0
 19 51  1  0  0  0  0
 19 52  1  0  0  0  0
 20 53  1  0  0  0  0
 20 54  1  0  0  0  0
 20 55  1  0  0  0  0
M  END
>  <Mol_ID>
3452

>  <Formula>
C17H34O4

>  <MolWeight>
302.44946

>  <Cat>
S5829

>  <Name>
Monomyristin

>  <Synonyms>
Glyceryl myristate; 2,3-Dihydroxypropyl tetradecanoate

>  <Target>
Fungal

>  <Form>
Free Base

>  <CAS>
589-68-4

>  <URL>
http://www.selleckchem.com/products/monomyristin.html

$$$$
