Motesanib (AMG-706)
 OpenBabel08302520353D

 51 54  0  0  0  0  0  0  0  0999 V2000
    0.7477    0.2852   -0.3471 C   0  0  0  0  0  0  0  0  0  0  0  0
    0.0983    0.0183    0.9741 C   0  0  0  0  0  0  0  0  0  0  0  0
   -3.5369    0.8339   -2.4928 C   0  0  0  0  0  0  0  0  0  0  0  0
   -4.6161    1.7058   -2.7564 N   0  0  0  0  0  0  0  0  0  0  0  0
    0.7341   -0.6996    2.0029 C   0  0  0  0  0  0  0  0  0  0  0  0
   -3.8996   -0.5118   -2.4831 C   0  0  0  0  0  0  0  0  0  0  0  0
   -0.0327    0.6946   -1.4205 N   0  0  0  0  0  0  0  0  0  0  0  0
   -5.3381   -0.6429   -2.9077 C   0  0  0  0  0  0  0  0  0  0  0  0
   -2.2585    1.2305   -2.1452 C   0  0  0  0  0  0  0  0  0  0  0  0
    2.0835   -1.0307    1.9394 N   0  0  0  0  0  0  0  0  0  0  0  0
   -2.9851   -1.4915   -2.1140 C   0  0  0  0  0  0  0  0  0  0  0  0
   -1.3301    0.2570   -1.7595 C   0  0  0  0  0  0  0  0  0  0  0  0
    0.0794   -1.0081    3.1555 N   0  0  0  0  0  0  0  0  0  0  0  0
   -5.6445    0.8257   -3.3356 C   0  0  0  0  0  0  0  0  0  0  0  0
    1.9608    0.2261   -0.5098 O   0  0  0  0  0  0  0  0  0  0  0  0
    7.0703   -0.9650    2.9664 N   0  0  0  0  0  0  0  0  0  0  0  0
   -1.6927   -1.0993   -1.7365 C   0  0  0  0  0  0  0  0  0  0  0  0
    2.7584   -1.3975    3.1683 C   0  0  0  0  0  0  0  0  0  0  0  0
   -1.1645    0.5712    1.2601 C   0  0  0  0  0  0  0  0  0  0  0  0
    4.2655   -1.2783    3.0402 C   0  0  0  0  0  0  0  0  0  0  0  0
   -6.2344   -1.0752   -1.7419 C   0  0  0  0  0  0  0  0  0  0  0  0
   -5.5155   -1.5925   -4.0968 C   0  0  0  0  0  0  0  0  0  0  0  0
   -1.1862   -0.5676    3.3280 C   0  0  0  0  0  0  0  0  0  0  0  0
    6.2609   -0.3357    2.0890 C   0  0  0  0  0  0  0  0  0  0  0  0
    6.4667   -1.7416    3.8894 C   0  0  0  0  0  0  0  0  0  0  0  0
    4.8783   -0.4508    2.0886 C   0  0  0  0  0  0  0  0  0  0  0  0
    5.0946   -1.9269    3.9672 C   0  0  0  0  0  0  0  0  0  0  0  0
   -1.8316    0.2547    2.4317 C   0  0  0  0  0  0  0  0  0  0  0  0
   -4.3335    2.4829   -3.3472 H   0  0  0  0  0  0  0  0  0  0  0  0
    0.5192    1.0030   -2.2129 H   0  0  0  0  0  0  0  0  0  0  0  0
   -2.0048    2.2856   -2.1028 H   0  0  0  0  0  0  0  0  0  0  0  0
    2.3237   -1.5771    1.1162 H   0  0  0  0  0  0  0  0  0  0  0  0
   -3.2594   -2.5421   -2.1151 H   0  0  0  0  0  0  0  0  0  0  0  0
   -6.6387    1.1517   -3.0101 H   0  0  0  0  0  0  0  0  0  0  0  0
   -5.6116    0.9365   -4.4276 H   0  0  0  0  0  0  0  0  0  0  0  0
   -0.9670   -1.8605   -1.4614 H   0  0  0  0  0  0  0  0  0  0  0  0
    2.4694   -0.7247    3.9860 H   0  0  0  0  0  0  0  0  0  0  0  0
    2.4932   -2.4256    3.4496 H   0  0  0  0  0  0  0  0  0  0  0  0
   -1.6406    1.2696    0.5799 H   0  0  0  0  0  0  0  0  0  0  0  0
   -7.2879   -1.0917   -2.0445 H   0  0  0  0  0  0  0  0  0  0  0  0
   -5.9739   -2.0806   -1.3914 H   0  0  0  0  0  0  0  0  0  0  0  0
   -6.1449   -0.3946   -0.8874 H   0  0  0  0  0  0  0  0  0  0  0  0
   -4.9054   -1.2819   -4.9532 H   0  0  0  0  0  0  0  0  0  0  0  0
   -5.2205   -2.6167   -3.8420 H   0  0  0  0  0  0  0  0  0  0  0  0
   -6.5606   -1.6166   -4.4254 H   0  0  0  0  0  0  0  0  0  0  0  0
   -1.6706   -0.8869    4.2433 H   0  0  0  0  0  0  0  0  0  0  0  0
    6.7657    0.2964    1.3631 H   0  0  0  0  0  0  0  0  0  0  0  0
    7.1357   -2.2220    4.5970 H   0  0  0  0  0  0  0  0  0  0  0  0
    4.2936    0.1079    1.3651 H   0  0  0  0  0  0  0  0  0  0  0  0
    4.6779   -2.5509    4.7507 H   0  0  0  0  0  0  0  0  0  0  0  0
   -2.8263    0.6369    2.6299 H   0  0  0  0  0  0  0  0  0  0  0  0
  2  1  1  0  0  0  0
  3  9  2  0  0  0  0
  4  3  1  0  0  0  0
  4 29  1  0  0  0  0
  5  2  1  0  0  0  0
  6  3  1  0  0  0  0
  6 11  2  0  0  0  0
  7  1  1  0  0  0  0
  7 30  1  0  0  0  0
  8  6  1  0  0  0  0
  9 12  1  0  0  0  0
  9 31  1  0  0  0  0
 10  5  1  0  0  0  0
 10 32  1  0  0  0  0
 11 17  1  0  0  0  0
 11 33  1  0  0  0  0
 12  7  1  0  0  0  0
 13  5  2  0  0  0  0
 13 23  1  0  0  0  0
 14  4  1  0  0  0  0
 14  8  1  0  0  0  0
 14 34  1  0  0  0  0
 14 35  1  0  0  0  0
 15  1  2  0  0  0  0
 16 25  2  0  0  0  0
 17 12  2  0  0  0  0
 17 36  1  0  0  0  0
 18 10  1  0  0  0  0
 18 37  1  0  0  0  0
 18 38  1  0  0  0  0
 19  2  2  0  0  0  0
 19 39  1  0  0  0  0
 20 18  1  0  0  0  0
 21  8  1  0  0  0  0
 21 40  1  0  0  0  0
 21 41  1  0  0  0  0
 21 42  1  0  0  0  0
 22  8  1  0  0  0  0
 22 43  1  0  0  0  0
 22 44  1  0  0  0  0
 22 45  1  0  0  0  0
 23 28  2  0  0  0  0
 23 46  1  0  0  0  0
 24 16  1  0  0  0  0
 24 26  2  0  0  0  0
 24 47  1  0  0  0  0
 25 27  1  0  0  0  0
 25 48  1  0  0  0  0
 26 20  1  0  0  0  0
 26 49  1  0  0  0  0
 27 20  2  0  0  0  0
 27 50  1  0  0  0  0
 28 19  1  0  0  0  0
 28 51  1  0  0  0  0
M  END
>  <Mol_ID>
3426

>  <Formula>
C22H23N5O

>  <MolWeight>
373.45092

>  <Cat>
S5793

>  <Name>
Motesanib (AMG-706)

>  <Synonyms>
N/A

>  <Target>
VEGFR

>  <Form>
Free Base

>  <CAS>
453562-69-1

>  <URL>
http://www.selleckchem.com/products/motesanib-amg-706.html

$$$$
