Moxonidine.cdx
 OpenBabel08302522013D

 28 29  0  0  0  0  0  0  0  0999 V2000
   -0.1688    1.2851   -0.0373 N   0  0  0  0  0  0  0  0  0  0  0  0
   -0.9114    0.1927    0.1342 C   0  0  0  0  0  0  0  0  0  0  0  0
   -0.4097   -1.0414    0.2817 N   0  0  0  0  0  0  0  0  0  0  0  0
    0.9323   -1.2075    0.1861 C   0  0  0  0  0  0  0  0  0  0  0  0
    1.8068   -0.1573   -0.0933 C   0  0  0  0  0  0  0  0  0  0  0  0
    1.1605    1.0771   -0.1366 C   0  0  0  0  0  0  0  0  0  0  0  0
    3.2036   -0.2541   -0.2795 N   0  0  0  0  0  0  0  0  0  0  0  0
    3.9545    0.6336   -0.9934 C   0  0  0  0  0  0  0  0  0  0  0  0
    3.5704    1.7019   -1.6307 N   0  0  0  0  0  0  0  0  0  0  0  0
    4.8052    2.2529   -2.2408 C   0  0  0  0  0  0  0  0  0  0  0  0
    5.9622    1.5088   -1.5837 C   0  0  0  0  0  0  0  0  0  0  0  0
    5.2893    0.3470   -1.0270 N   0  0  0  0  0  0  0  0  0  0  0  0
   -2.3977    0.3432    0.0820 C   0  0  0  0  0  0  0  0  0  0  0  0
    1.2117   -2.5342    0.3133 O   0  0  0  0  0  0  0  0  0  0  0  0
    2.4762   -3.0042    0.7236 C   0  0  0  0  0  0  0  0  0  0  0  0
    1.7131    2.0018   -0.2708 H   0  0  0  0  0  0  0  0  0  0  0  0
    3.5492   -1.1934   -0.3813 H   0  0  0  0  0  0  0  0  0  0  0  0
    4.8671    3.3323   -2.0652 H   0  0  0  0  0  0  0  0  0  0  0  0
    4.7743    2.0788   -3.3220 H   0  0  0  0  0  0  0  0  0  0  0  0
    6.7411    1.2375   -2.3003 H   0  0  0  0  0  0  0  0  0  0  0  0
    6.4016    2.1120   -0.7817 H   0  0  0  0  0  0  0  0  0  0  0  0
    5.6728    0.0308   -0.1440 H   0  0  0  0  0  0  0  0  0  0  0  0
   -2.7793   -0.1197   -0.8334 H   0  0  0  0  0  0  0  0  0  0  0  0
   -2.8583   -0.1422    0.9461 H   0  0  0  0  0  0  0  0  0  0  0  0
   -2.6872    1.3990    0.0786 H   0  0  0  0  0  0  0  0  0  0  0  0
    3.1355   -3.0921   -0.1439 H   0  0  0  0  0  0  0  0  0  0  0  0
    2.9239   -2.4028    1.5200 H   0  0  0  0  0  0  0  0  0  0  0  0
    2.3427   -4.0212    1.1108 H   0  0  0  0  0  0  0  0  0  0  0  0
  1  2  2  0  0  0  0
  2  3  1  0  0  0  0
  2 13  1  0  0  0  0
  3  4  2  0  0  0  0
  4  5  1  0  0  0  0
  4 14  1  0  0  0  0
  5  6  2  0  0  0  0
  5  7  1  0  0  0  0
  6  1  1  0  0  0  0
  6 16  1  0  0  0  0
  7  8  1  0  0  0  0
  7 17  1  0  0  0  0
  8  9  2  0  0  0  0
  9 10  1  0  0  0  0
 10 11  1  0  0  0  0
 10 18  1  0  0  0  0
 10 19  1  0  0  0  0
 11 12  1  0  0  0  0
 11 20  1  0  0  0  0
 11 21  1  0  0  0  0
 12  8  1  0  0  0  0
 12 22  1  0  0  0  0
 13 23  1  0  0  0  0
 13 24  1  0  0  0  0
 13 25  1  0  0  0  0
 14 15  1  0  0  0  0
 15 26  1  0  0  0  0
 15 27  1  0  0  0  0
 15 28  1  0  0  0  0
M  END
>  <Mol_ID>
1132

>  <Formula>
C9H12ClN5O

>  <MolWeight>
241.67748

>  <Cat>
S2066

>  <Name>
Moxonidine

>  <Synonyms>
BDF5895

>  <Target>
Imidazoline Receptor

>  <Form>
free base

>  <CAS>
75438-57-2

>  <URL>
http://selleckchem.com/products/moxonidine.html

$$$$
