MPO-IN-28
 OpenBabel08302521303D

 30 31  0  0  0  0  0  0  0  0999 V2000
    1.0370   -0.1220   -0.2297 O   0  0  0  0  0  0  0  0  0  0  0  0
   -2.4204   -3.3099   -0.1041 N   0  0  0  0  0  0  0  0  0  0  0  0
   -2.8653   -4.6445    1.8192 N   0  0  0  0  0  0  0  0  0  0  0  0
   -4.0617   -4.9507   -0.1862 N   0  0  0  0  0  0  0  0  0  0  0  0
   -3.8644   -6.9961    1.0451 N   0  0  0  0  0  0  0  0  0  0  0  0
   -5.2864   -6.8244   -0.6632 N   0  0  0  0  0  0  0  0  0  0  0  0
   -1.0707   -3.0416    1.8646 C   0  0  0  0  0  0  0  0  0  0  0  0
   -1.4196   -2.7037    0.5498 C   0  0  0  0  0  0  0  0  0  0  0  0
   -1.8589   -4.0243    2.4647 C   0  0  0  0  0  0  0  0  0  0  0  0
    0.0237   -2.4060    2.4924 C   0  0  0  0  0  0  0  0  0  0  0  0
   -0.6783   -1.7109   -0.0879 C   0  0  0  0  0  0  0  0  0  0  0  0
    0.4099   -1.0750    0.5258 C   0  0  0  0  0  0  0  0  0  0  0  0
    0.7660   -1.4386    1.8191 C   0  0  0  0  0  0  0  0  0  0  0  0
   -1.6295   -4.4785    3.8781 C   0  0  0  0  0  0  0  0  0  0  0  0
   -3.0809   -4.2786    0.5439 C   0  0  0  0  0  0  0  0  0  0  0  0
    2.1921    0.4889    0.3372 C   0  0  0  0  0  0  0  0  0  0  0  0
   -4.3698   -6.1723    0.0907 C   0  0  0  0  0  0  0  0  0  0  0  0
   -4.5287   -7.6019    1.4968 H   0  0  0  0  0  0  0  0  0  0  0  0
   -3.3243   -6.4657    1.7316 H   0  0  0  0  0  0  0  0  0  0  0  0
   -5.7948   -6.2008   -1.2792 H   0  0  0  0  0  0  0  0  0  0  0  0
   -5.8649   -7.5121   -0.2072 H   0  0  0  0  0  0  0  0  0  0  0  0
    0.3159   -2.6654    3.5055 H   0  0  0  0  0  0  0  0  0  0  0  0
   -0.9512   -1.4300   -1.1037 H   0  0  0  0  0  0  0  0  0  0  0  0
    1.6085   -0.9921    2.3349 H   0  0  0  0  0  0  0  0  0  0  0  0
   -0.6173   -4.8783    3.9905 H   0  0  0  0  0  0  0  0  0  0  0  0
   -1.7777   -3.6470    4.5740 H   0  0  0  0  0  0  0  0  0  0  0  0
   -2.3324   -5.2731    4.1499 H   0  0  0  0  0  0  0  0  0  0  0  0
    2.5276    1.2764   -0.3440 H   0  0  0  0  0  0  0  0  0  0  0  0
    1.9680    0.9636    1.2986 H   0  0  0  0  0  0  0  0  0  0  0  0
    3.0044   -0.2390    0.4381 H   0  0  0  0  0  0  0  0  0  0  0  0
  1 12  1  0  0  0  0
  1 16  1  0  0  0  0
  2  8  2  0  0  0  0
  2 15  1  0  0  0  0
  3  9  1  0  0  0  0
  3 15  2  0  0  0  0
  4 15  1  0  0  0  0
  4 17  2  0  0  0  0
  5 17  1  0  0  0  0
  5 18  1  0  0  0  0
  5 19  1  0  0  0  0
  6 17  1  0  0  0  0
  6 20  1  0  0  0  0
  6 21  1  0  0  0  0
  7  8  1  0  0  0  0
  7  9  2  0  0  0  0
  7 10  1  0  0  0  0
  8 11  1  0  0  0  0
  9 14  1  0  0  0  0
 10 13  2  0  0  0  0
 10 22  1  0  0  0  0
 11 12  2  0  0  0  0
 11 23  1  0  0  0  0
 12 13  1  0  0  0  0
 13 24  1  0  0  0  0
 14 25  1  0  0  0  0
 14 26  1  0  0  0  0
 14 27  1  0  0  0  0
 16 28  1  0  0  0  0
 16 29  1  0  0  0  0
 16 30  1  0  0  0  0
M  END
>  <Mol_ID>
5612

>  <Formula>
C11H13N5O

>  <MolWeight>
231.25382

>  <Cat>
S0316

>  <Name>
MPO-IN-28

>  <Synonyms>
N/A

>  <Target>
Peroxidases

>  <Form>
Free Base

>  <CAS>
37836-90-1

>  <URL>
http://www.selleckchem.com/products/mpo-in-28.html

$$$$
