MQAE
 OpenBabel08302521313D

 35 35  0  0  0  0  0  0  0  0999 V2000
    0.9308   -1.5715    2.7925 Br  0  5  0  0  0  0  0  0  0  0  0  0
   -1.6765    1.2615   -2.6881 O   0  0  0  0  0  0  0  0  0  0  0  0
   -4.1177    0.3268    4.6287 O   0  0  0  0  0  0  0  0  0  0  0  0
   -2.8500   -0.7053   -2.5587 O   0  0  0  0  0  0  0  0  0  0  0  0
   -1.6451   -1.2465   -0.0932 N   0  3  0  0  0  0  0  0  0  0  0  0
   -2.3404   -0.8116    1.0072 C   0  0  0  0  0  0  0  0  0  0  0  0
   -2.7299   -1.7613    1.9829 C   0  0  0  0  0  0  0  0  0  0  0  0
   -1.0130   -0.2964   -1.0321 C   0  0  0  0  0  0  0  0  0  0  0  0
   -1.4135   -2.5669   -0.2900 C   0  0  0  0  0  0  0  0  0  0  0  0
   -2.6859    0.5372    1.2205 C   0  0  0  0  0  0  0  0  0  0  0  0
   -2.4809   -3.1163    1.7730 C   0  0  0  0  0  0  0  0  0  0  0  0
   -3.3157   -1.3236    3.1907 C   0  0  0  0  0  0  0  0  0  0  0  0
   -1.8376   -3.5280    0.6113 C   0  0  0  0  0  0  0  0  0  0  0  0
   -3.5656    0.0270    3.4161 C   0  0  0  0  0  0  0  0  0  0  0  0
   -3.2964    0.9518    2.4126 C   0  0  0  0  0  0  0  0  0  0  0  0
   -1.9627    0.0378   -2.1604 C   0  0  0  0  0  0  0  0  0  0  0  0
   -2.5259    1.7190   -3.7558 C   0  0  0  0  0  0  0  0  0  0  0  0
   -2.0923    1.1282   -5.0844 C   0  0  0  0  0  0  0  0  0  0  0  0
   -3.7981    1.6151    5.1481 C   0  0  0  0  0  0  0  0  0  0  0  0
   -0.1090   -0.7524   -1.4524 H   0  0  0  0  0  0  0  0  0  0  0  0
   -0.7063    0.5999   -0.4890 H   0  0  0  0  0  0  0  0  0  0  0  0
   -0.8601   -2.8543   -1.1787 H   0  0  0  0  0  0  0  0  0  0  0  0
   -2.4882    1.3106    0.4867 H   0  0  0  0  0  0  0  0  0  0  0  0
   -2.7267   -3.8536    2.5295 H   0  0  0  0  0  0  0  0  0  0  0  0
   -3.5173   -2.0365    3.9838 H   0  0  0  0  0  0  0  0  0  0  0  0
   -1.6121   -4.5764    0.4536 H   0  0  0  0  0  0  0  0  0  0  0  0
   -3.5413    2.0020    2.5360 H   0  0  0  0  0  0  0  0  0  0  0  0
   -3.5766    1.4945   -3.5399 H   0  0  0  0  0  0  0  0  0  0  0  0
   -2.4310    2.8100   -3.7913 H   0  0  0  0  0  0  0  0  0  0  0  0
   -2.3520    0.0666   -5.1387 H   0  0  0  0  0  0  0  0  0  0  0  0
   -2.5856    1.6409   -5.9160 H   0  0  0  0  0  0  0  0  0  0  0  0
   -1.0078    1.2021   -5.2127 H   0  0  0  0  0  0  0  0  0  0  0  0
   -2.7165    1.7933    5.1510 H   0  0  0  0  0  0  0  0  0  0  0  0
   -4.3233    2.4003    4.5963 H   0  0  0  0  0  0  0  0  0  0  0  0
   -4.1469    1.6530    6.1849 H   0  0  0  0  0  0  0  0  0  0  0  0
  2 16  1  0  0  0  0
  2 17  1  0  0  0  0
  3 14  1  0  0  0  0
  3 19  1  0  0  0  0
  4 16  2  0  0  0  0
  5  6  2  0  0  0  0
  5  8  1  0  0  0  0
  5  9  1  0  0  0  0
  6  7  1  0  0  0  0
  6 10  1  0  0  0  0
  7 11  2  0  0  0  0
  7 12  1  0  0  0  0
  8 16  1  0  0  0  0
  8 20  1  0  0  0  0
  8 21  1  0  0  0  0
  9 13  2  0  0  0  0
  9 22  1  0  0  0  0
 10 15  2  0  0  0  0
 10 23  1  0  0  0  0
 11 13  1  0  0  0  0
 11 24  1  0  0  0  0
 12 14  2  0  0  0  0
 12 25  1  0  0  0  0
 13 26  1  0  0  0  0
 14 15  1  0  0  0  0
 15 27  1  0  0  0  0
 17 18  1  0  0  0  0
 17 28  1  0  0  0  0
 17 29  1  0  0  0  0
 18 30  1  0  0  0  0
 18 31  1  0  0  0  0
 18 32  1  0  0  0  0
 19 33  1  0  0  0  0
 19 34  1  0  0  0  0
 19 35  1  0  0  0  0
M  CHG  2   1  -1   5   1
M  END
>  <Mol_ID>
6072

>  <Formula>
C14H16BrNO3

>  <MolWeight>
326.18574

>  <Cat>
E0126

>  <Name>
MQAE

>  <Synonyms>
1-(Ethoxycarbonylmethyl)-6-methoxyquinolinium bromide, N-[ethoxycarbonylmethyl]-6-methoxy-quinolinium bromide

>  <Target>
Dyes,Dyes

>  <Form>
Free Base

>  <CAS>
162558-52-3

>  <URL>
http://www.selleckchem.com/products/mqae.html

$$$$
