MRT67307
 OpenBabel08302521313D

 70 74  0  0  0  0  0  0  0  0999 V2000
    4.8479   -2.9638   -2.3648 O   0  0  0  0  0  0  0  0  0  0  0  0
   15.6350   10.0045   -5.1270 O   0  0  0  0  0  0  0  0  0  0  0  0
    4.9742    2.5639   -3.2215 N   0  0  0  0  0  0  0  0  0  0  0  0
    3.0219   -1.7445   -1.7620 N   0  0  0  0  0  0  0  0  0  0  0  0
    6.8003    3.7798   -3.9088 N   0  0  0  0  0  0  0  0  0  0  0  0
    7.0258    4.7289   -6.0337 N   0  0  0  0  0  0  0  0  0  0  0  0
   13.6226    7.8907   -4.6663 N   0  0  0  0  0  0  0  0  0  0  0  0
    8.7055    5.0766   -4.4457 N   0  0  0  0  0  0  0  0  0  0  0  0
    3.7972    2.7940   -6.1324 C   0  0  0  0  0  0  0  0  0  0  0  0
    2.7981    3.6941   -6.8411 C   0  0  0  0  0  0  0  0  0  0  0  0
    2.4145    3.0186   -5.5701 C   0  0  0  0  0  0  0  0  0  0  0  0
    5.0603    3.4023   -5.5479 C   0  0  0  0  0  0  0  0  0  0  0  0
    3.5028   -3.7406   -0.4406 C   0  0  0  0  0  0  0  0  0  0  0  0
    4.5592   -3.9434    0.6789 C   0  0  0  0  0  0  0  0  0  0  0  0
    3.6053   -5.2752   -0.6760 C   0  0  0  0  0  0  0  0  0  0  0  0
    4.0568   -5.3955    0.7937 C   0  0  0  0  0  0  0  0  0  0  0  0
    5.6011    3.2424   -4.2669 C   0  0  0  0  0  0  0  0  0  0  0  0
    3.8758   -2.8162   -1.6091 C   0  0  0  0  0  0  0  0  0  0  0  0
    5.8752    4.1439   -6.3861 C   0  0  0  0  0  0  0  0  0  0  0  0
    4.1534    1.4018   -3.5047 C   0  0  0  0  0  0  0  0  0  0  0  0
    3.1978   -0.7532   -2.8050 C   0  0  0  0  0  0  0  0  0  0  0  0
    4.0928    0.4067   -2.3596 C   0  0  0  0  0  0  0  0  0  0  0  0
    7.4699    4.5267   -4.7966 C   0  0  0  0  0  0  0  0  0  0  0  0
   13.5030    9.2681   -4.1392 C   0  0  0  0  0  0  0  0  0  0  0  0
   15.0462    7.6310   -4.9925 C   0  0  0  0  0  0  0  0  0  0  0  0
   12.7626    7.6209   -5.8233 C   0  0  0  0  0  0  0  0  0  0  0  0
    9.2811    6.2801   -4.8841 C   0  0  0  0  0  0  0  0  0  0  0  0
   14.2597   10.3505   -4.9360 C   0  0  0  0  0  0  0  0  0  0  0  0
   15.7393    8.7461   -5.7978 C   0  0  0  0  0  0  0  0  0  0  0  0
   11.2739    7.5681   -5.5250 C   0  0  0  0  0  0  0  0  0  0  0  0
   10.6773    6.4155   -4.9626 C   0  0  0  0  0  0  0  0  0  0  0  0
   10.4538    8.6317   -5.9192 C   0  0  0  0  0  0  0  0  0  0  0  0
    8.4938    7.3386   -5.3605 C   0  0  0  0  0  0  0  0  0  0  0  0
    9.0697    8.5143   -5.8399 C   0  0  0  0  0  0  0  0  0  0  0  0
    5.6390    2.4787   -2.4585 H   0  0  0  0  0  0  0  0  0  0  0  0
    2.2660   -1.6141   -1.1046 H   0  0  0  0  0  0  0  0  0  0  0  0
    9.1063    4.6344   -3.6311 H   0  0  0  0  0  0  0  0  0  0  0  0
    3.9619    1.8285   -6.6125 H   0  0  0  0  0  0  0  0  0  0  0  0
    2.9159    4.7727   -6.7946 H   0  0  0  0  0  0  0  0  0  0  0  0
    2.3548    3.3363   -7.7610 H   0  0  0  0  0  0  0  0  0  0  0  0
    1.7215    2.1847   -5.6251 H   0  0  0  0  0  0  0  0  0  0  0  0
    2.3000    3.6316   -4.6841 H   0  0  0  0  0  0  0  0  0  0  0  0
    2.5203   -3.4854   -0.0130 H   0  0  0  0  0  0  0  0  0  0  0  0
    5.5980   -3.8595    0.3386 H   0  0  0  0  0  0  0  0  0  0  0  0
    4.4259   -3.3244    1.5694 H   0  0  0  0  0  0  0  0  0  0  0  0
    2.6676   -5.7797   -0.9237 H   0  0  0  0  0  0  0  0  0  0  0  0
    4.3720   -5.5740   -1.3998 H   0  0  0  0  0  0  0  0  0  0  0  0
    4.8181   -6.1501    1.0004 H   0  0  0  0  0  0  0  0  0  0  0  0
    3.2265   -5.5180    1.4998 H   0  0  0  0  0  0  0  0  0  0  0  0
    5.6031    4.2859   -7.4345 H   0  0  0  0  0  0  0  0  0  0  0  0
    4.5070    0.8766   -4.3981 H   0  0  0  0  0  0  0  0  0  0  0  0
    3.1281    1.7348   -3.6634 H   0  0  0  0  0  0  0  0  0  0  0  0
    3.6102   -1.2372   -3.6923 H   0  0  0  0  0  0  0  0  0  0  0  0
    2.1917   -0.3907   -3.0632 H   0  0  0  0  0  0  0  0  0  0  0  0
    3.6796    0.8774   -1.4596 H   0  0  0  0  0  0  0  0  0  0  0  0
    5.0945    0.0435   -2.1034 H   0  0  0  0  0  0  0  0  0  0  0  0
   13.9199    9.2517   -3.1256 H   0  0  0  0  0  0  0  0  0  0  0  0
   12.4554    9.5651   -4.0224 H   0  0  0  0  0  0  0  0  0  0  0  0
   15.5789    7.5192   -4.0402 H   0  0  0  0  0  0  0  0  0  0  0  0
   15.1577    6.6762   -5.5158 H   0  0  0  0  0  0  0  0  0  0  0  0
   13.0146    6.6342   -6.2373 H   0  0  0  0  0  0  0  0  0  0  0  0
   12.9492    8.3295   -6.6410 H   0  0  0  0  0  0  0  0  0  0  0  0
   13.7980   10.5340   -5.9126 H   0  0  0  0  0  0  0  0  0  0  0  0
   14.2382   11.2938   -4.3796 H   0  0  0  0  0  0  0  0  0  0  0  0
   16.8053    8.5166   -5.9009 H   0  0  0  0  0  0  0  0  0  0  0  0
   15.3253    8.8403   -6.8086 H   0  0  0  0  0  0  0  0  0  0  0  0
   11.3153    5.5929   -4.6487 H   0  0  0  0  0  0  0  0  0  0  0  0
   10.8857    9.5397   -6.3301 H   0  0  0  0  0  0  0  0  0  0  0  0
    7.4096    7.2612   -5.3501 H   0  0  0  0  0  0  0  0  0  0  0  0
    8.4321    9.3264   -6.1815 H   0  0  0  0  0  0  0  0  0  0  0  0
  1 18  2  0  0  0  0
  2 28  1  0  0  0  0
  2 29  1  0  0  0  0
  3 17  1  0  0  0  0
  3 20  1  0  0  0  0
  3 35  1  0  0  0  0
  4 18  1  0  0  0  0
  4 21  1  0  0  0  0
  4 36  1  0  0  0  0
  5 17  2  0  0  0  0
  5 23  1  0  0  0  0
  6 19  1  0  0  0  0
  6 23  2  0  0  0  0
  7 24  1  0  0  0  0
  7 25  1  0  0  0  0
  7 26  1  0  0  0  0
  8 23  1  0  0  0  0
  8 27  1  0  0  0  0
  8 37  1  0  0  0  0
  9 10  1  0  0  0  0
  9 11  1  0  0  0  0
  9 12  1  0  0  0  0
  9 38  1  0  0  0  0
 10 11  1  0  0  0  0
 10 39  1  0  0  0  0
 10 40  1  0  0  0  0
 11 41  1  0  0  0  0
 11 42  1  0  0  0  0
 12 17  1  0  0  0  0
 12 19  2  0  0  0  0
 13 14  1  0  0  0  0
 13 15  1  0  0  0  0
 13 18  1  0  0  0  0
 13 43  1  0  0  0  0
 14 16  1  0  0  0  0
 14 44  1  0  0  0  0
 14 45  1  0  0  0  0
 15 16  1  0  0  0  0
 15 46  1  0  0  0  0
 15 47  1  0  0  0  0
 16 48  1  0  0  0  0
 16 49  1  0  0  0  0
 19 50  1  0  0  0  0
 20 22  1  0  0  0  0
 20 51  1  0  0  0  0
 20 52  1  0  0  0  0
 21 22  1  0  0  0  0
 21 53  1  0  0  0  0
 21 54  1  0  0  0  0
 22 55  1  0  0  0  0
 22 56  1  0  0  0  0
 24 28  1  0  0  0  0
 24 57  1  0  0  0  0
 24 58  1  0  0  0  0
 25 29  1  0  0  0  0
 25 59  1  0  0  0  0
 25 60  1  0  0  0  0
 26 30  1  0  0  0  0
 26 61  1  0  0  0  0
 26 62  1  0  0  0  0
 27 31  2  0  0  0  0
 27 33  1  0  0  0  0
 28 63  1  0  0  0  0
 28 64  1  0  0  0  0
 29 65  1  0  0  0  0
 29 66  1  0  0  0  0
 30 31  1  0  0  0  0
 30 32  2  0  0  0  0
 31 67  1  0  0  0  0
 32 34  1  0  0  0  0
 32 68  1  0  0  0  0
 33 34  2  0  0  0  0
 33 69  1  0  0  0  0
 34 70  1  0  0  0  0
M  END
>  <Mol_ID>
6015

>  <Formula>
C26H36N6O2

>  <MolWeight>
464.60304

>  <Cat>
S6386

>  <Name>
MRT67307

>  <Synonyms>
IKK¦Å/TBK1 Inhibitor II

>  <Target>
I¦ÊB/IKK,TBK1,ULK

>  <Form>
Free Base

>  <CAS>
1190378-57-4

>  <URL>
http://www.selleckchem.com/products/mrt67307.html

$$$$
