MSX-122
 OpenBabel08302521223D

 38 40  0  0  0  0  0  0  0  0999 V2000
    0.1777    0.2131   -2.4325 N   0  0  0  0  0  0  0  0  0  0  0  0
   -2.7673   -5.5515    1.2190 N   0  0  0  0  0  0  0  0  0  0  0  0
    2.0434    1.5333   -1.7951 N   0  0  0  0  0  0  0  0  0  0  0  0
   -3.7973   -7.6080    0.6678 N   0  0  0  0  0  0  0  0  0  0  0  0
    0.5572    2.2490   -3.4841 N   0  0  0  0  0  0  0  0  0  0  0  0
   -3.8478   -6.7662    2.8750 N   0  0  0  0  0  0  0  0  0  0  0  0
   -0.7023   -1.5401   -0.9594 C   0  0  0  0  0  0  0  0  0  0  0  0
   -2.2276   -3.8703   -0.4549 C   0  0  0  0  0  0  0  0  0  0  0  0
    0.1695   -0.3082   -1.0823 C   0  0  0  0  0  0  0  0  0  0  0  0
   -3.0203   -5.1208   -0.1420 C   0  0  0  0  0  0  0  0  0  0  0  0
   -0.1791   -2.8112   -1.2363 C   0  0  0  0  0  0  0  0  0  0  0  0
   -0.9281   -3.9634   -0.9733 C   0  0  0  0  0  0  0  0  0  0  0  0
   -2.0179   -1.4452   -0.4847 C   0  0  0  0  0  0  0  0  0  0  0  0
   -2.7689   -2.5981   -0.2252 C   0  0  0  0  0  0  0  0  0  0  0  0
    0.9586    1.3583   -2.5673 C   0  0  0  0  0  0  0  0  0  0  0  0
   -3.4895   -6.6802    1.5859 C   0  0  0  0  0  0  0  0  0  0  0  0
    2.7620    2.6570   -1.9768 C   0  0  0  0  0  0  0  0  0  0  0  0
   -4.4895   -8.6852    1.0824 C   0  0  0  0  0  0  0  0  0  0  0  0
    1.3139    3.3567   -3.6357 C   0  0  0  0  0  0  0  0  0  0  0  0
   -4.5350   -7.8651    3.2445 C   0  0  0  0  0  0  0  0  0  0  0  0
    2.4405    3.6182   -2.8987 C   0  0  0  0  0  0  0  0  0  0  0  0
   -4.8910   -8.8707    2.3799 C   0  0  0  0  0  0  0  0  0  0  0  0
   -0.7304    0.4318   -2.8238 H   0  0  0  0  0  0  0  0  0  0  0  0
   -2.9184   -4.8552    1.9380 H   0  0  0  0  0  0  0  0  0  0  0  0
    1.1814   -0.5880   -0.7599 H   0  0  0  0  0  0  0  0  0  0  0  0
   -0.1907    0.4516   -0.3756 H   0  0  0  0  0  0  0  0  0  0  0  0
   -4.0881   -4.9165   -0.2943 H   0  0  0  0  0  0  0  0  0  0  0  0
   -2.7324   -5.8977   -0.8614 H   0  0  0  0  0  0  0  0  0  0  0  0
    0.8320   -2.9111   -1.6270 H   0  0  0  0  0  0  0  0  0  0  0  0
   -0.4850   -4.9401   -1.1597 H   0  0  0  0  0  0  0  0  0  0  0  0
   -2.4561   -0.4713   -0.2792 H   0  0  0  0  0  0  0  0  0  0  0  0
   -3.7763   -2.4966    0.1723 H   0  0  0  0  0  0  0  0  0  0  0  0
    3.6304    2.7598   -1.3333 H   0  0  0  0  0  0  0  0  0  0  0  0
   -4.7145   -9.4141    0.3105 H   0  0  0  0  0  0  0  0  0  0  0  0
    0.9719    4.0507   -4.3988 H   0  0  0  0  0  0  0  0  0  0  0  0
   -4.7998   -7.9171    4.2984 H   0  0  0  0  0  0  0  0  0  0  0  0
    3.0320    4.5119   -3.0347 H   0  0  0  0  0  0  0  0  0  0  0  0
   -5.4436   -9.7439    2.6946 H   0  0  0  0  0  0  0  0  0  0  0  0
  1  9  1  0  0  0  0
  1 15  1  0  0  0  0
  1 23  1  0  0  0  0
  2 10  1  0  0  0  0
  2 16  1  0  0  0  0
  2 24  1  0  0  0  0
  3 15  2  0  0  0  0
  3 17  1  0  0  0  0
  4 16  2  0  0  0  0
  4 18  1  0  0  0  0
  5 15  1  0  0  0  0
  5 19  2  0  0  0  0
  6 16  1  0  0  0  0
  6 20  2  0  0  0  0
  7  9  1  0  0  0  0
  7 11  2  0  0  0  0
  7 13  1  0  0  0  0
  8 10  1  0  0  0  0
  8 12  2  0  0  0  0
  8 14  1  0  0  0  0
  9 25  1  0  0  0  0
  9 26  1  0  0  0  0
 10 27  1  0  0  0  0
 10 28  1  0  0  0  0
 11 12  1  0  0  0  0
 11 29  1  0  0  0  0
 12 30  1  0  0  0  0
 13 14  2  0  0  0  0
 13 31  1  0  0  0  0
 14 32  1  0  0  0  0
 17 21  2  0  0  0  0
 17 33  1  0  0  0  0
 18 22  2  0  0  0  0
 18 34  1  0  0  0  0
 19 21  1  0  0  0  0
 19 35  1  0  0  0  0
 20 22  1  0  0  0  0
 20 36  1  0  0  0  0
 21 37  1  0  0  0  0
 22 38  1  0  0  0  0
M  END
>  <Mol_ID>
4741

>  <Formula>
C16H16N6

>  <MolWeight>
292.33844

>  <Cat>
S6617

>  <Name>
MSX-122

>  <Synonyms>
Q-122

>  <Target>
CXCR

>  <Form>
Free Base

>  <CAS>
897657-95-3

>  <URL>
http://www.selleck.cn/products/msx-122.html

$$$$
