Mycophenolic acid.cdx
 OpenBabel08302521383D

 43 44  0  0  0  0  0  0  0  0999 V2000
   -0.3780    0.6228    0.1746 C   0  0  0  0  0  0  0  0  0  0  0  0
   -0.3685   -0.7560    0.1394 C   0  0  0  0  0  0  0  0  0  0  0  0
    0.8136   -1.5113    0.0812 C   0  0  0  0  0  0  0  0  0  0  0  0
    2.0243   -0.7856    0.0666 C   0  0  0  0  0  0  0  0  0  0  0  0
    2.0148    0.6624    0.1099 C   0  0  0  0  0  0  0  0  0  0  0  0
    0.7899    1.3551    0.1572 C   0  0  0  0  0  0  0  0  0  0  0  0
   -1.7658    1.0849    0.2109 C   0  0  0  0  0  0  0  0  0  0  0  0
   -2.5511   -0.0355    0.2047 O   0  0  0  0  0  0  0  0  0  0  0  0
   -1.7686   -1.2383    0.1788 C   0  0  0  0  0  0  0  0  0  0  0  0
    3.3002   -1.2876    0.0328 O   0  0  0  0  0  0  0  0  0  0  0  0
    3.5693   -2.6647   -0.1305 C   0  0  0  0  0  0  0  0  0  0  0  0
    3.6514    1.8799   -1.3541 C   0  0  0  0  0  0  0  0  0  0  0  0
    3.3198    1.4481    0.0553 C   0  0  0  0  0  0  0  0  0  0  0  0
   -2.1847    2.2228    0.2346 O   0  0  0  0  0  0  0  0  0  0  0  0
    0.6897    2.7136    0.1903 O   0  0  0  0  0  0  0  0  0  0  0  0
    0.5857   -2.9992    0.0452 C   0  0  0  0  0  0  0  0  0  0  0  0
    4.5674    1.3373   -2.1820 C   0  0  0  0  0  0  0  0  0  0  0  0
    5.4779    0.2007   -1.8025 C   0  0  0  0  0  0  0  0  0  0  0  0
    4.7248    1.8463   -3.6058 C   0  0  0  0  0  0  0  0  0  0  0  0
    4.3264    0.7890   -4.6356 C   0  0  0  0  0  0  0  0  0  0  0  0
    4.4092    1.3161   -6.0406 C   0  0  0  0  0  0  0  0  0  0  0  0
    4.7899    2.4142   -6.3993 O   0  0  0  0  0  0  0  0  0  0  0  0
    4.0106    0.3980   -6.9399 O   0  0  0  0  0  0  0  0  0  0  0  0
   -1.9770   -1.8123    1.0867 H   0  0  0  0  0  0  0  0  0  0  0  0
   -2.0325   -1.8137   -0.7134 H   0  0  0  0  0  0  0  0  0  0  0  0
    3.2753   -3.2203    0.7648 H   0  0  0  0  0  0  0  0  0  0  0  0
    3.1192   -3.0529   -1.0494 H   0  0  0  0  0  0  0  0  0  0  0  0
    4.6510   -2.7943   -0.2335 H   0  0  0  0  0  0  0  0  0  0  0  0
    3.0573    2.7145   -1.7272 H   0  0  0  0  0  0  0  0  0  0  0  0
    3.2414    2.3451    0.6851 H   0  0  0  0  0  0  0  0  0  0  0  0
    4.1337    0.8974    0.5338 H   0  0  0  0  0  0  0  0  0  0  0  0
    1.5375    3.1443    0.0127 H   0  0  0  0  0  0  0  0  0  0  0  0
    0.0293   -3.3053    0.9379 H   0  0  0  0  0  0  0  0  0  0  0  0
   -0.0062   -3.2548   -0.8423 H   0  0  0  0  0  0  0  0  0  0  0  0
    1.4549   -3.6423    0.0116 H   0  0  0  0  0  0  0  0  0  0  0  0
    5.2555   -0.6859   -2.4035 H   0  0  0  0  0  0  0  0  0  0  0  0
    6.5215    0.4854   -1.9634 H   0  0  0  0  0  0  0  0  0  0  0  0
    5.3949   -0.0955   -0.7570 H   0  0  0  0  0  0  0  0  0  0  0  0
    4.1190    2.7484   -3.7634 H   0  0  0  0  0  0  0  0  0  0  0  0
    5.7659    2.1561   -3.7636 H   0  0  0  0  0  0  0  0  0  0  0  0
    4.9962   -0.0773   -4.5735 H   0  0  0  0  0  0  0  0  0  0  0  0
    3.2979    0.4563   -4.4541 H   0  0  0  0  0  0  0  0  0  0  0  0
    4.1171    0.8342   -7.8059 H   0  0  0  0  0  0  0  0  0  0  0  0
  1  2  1  0  0  0  0
  1  7  1  0  0  0  0
  2  3  2  0  0  0  0
  3  4  1  0  0  0  0
  3 16  1  0  0  0  0
  4  5  2  0  0  0  0
  4 10  1  0  0  0  0
  5  6  1  0  0  0  0
  6  1  2  0  0  0  0
  6 15  1  0  0  0  0
  7  8  1  0  0  0  0
  7 14  2  0  0  0  0
  8  9  1  0  0  0  0
  9  2  1  0  0  0  0
  9 24  1  0  0  0  0
  9 25  1  0  0  0  0
 10 11  1  0  0  0  0
 11 26  1  0  0  0  0
 11 27  1  0  0  0  0
 11 28  1  0  0  0  0
 12 13  1  0  0  0  0
 12 17  2  0  0  0  0
 12 29  1  0  0  0  0
 13  5  1  0  0  0  0
 13 30  1  0  0  0  0
 13 31  1  0  0  0  0
 15 32  1  0  0  0  0
 16 33  1  0  0  0  0
 16 34  1  0  0  0  0
 16 35  1  0  0  0  0
 17 18  1  0  0  0  0
 17 19  1  0  0  0  0
 18 36  1  0  0  0  0
 18 37  1  0  0  0  0
 18 38  1  0  0  0  0
 19 20  1  0  0  0  0
 19 39  1  0  0  0  0
 19 40  1  0  0  0  0
 20 21  1  0  0  0  0
 20 41  1  0  0  0  0
 20 42  1  0  0  0  0
 21 22  2  0  0  0  0
 21 23  1  0  0  0  0
 23 43  1  0  0  0  0
M  END
>  <Mol_ID>
761

>  <Formula>
C17H20O6

>  <MolWeight>
320.3371

>  <Cat>
S2487

>  <Name>
Mycophenolic acid

>  <Synonyms>
Mycophenolate, RS-61443

>  <Target>
Antineoplastic and Immunosuppressive Antibiotics,Dehydrogenase,Selection Antibiotics for Transfected Cell

>  <Form>
free base

>  <CAS>
24280-93-1

>  <URL>
http://selleckchem.com/products/Mycophenolic-acid(Mycophenolate).html

$$$$
