Myosmine
 OpenBabel08302521293D

 21 22  0  0  0  0  0  0  0  0999 V2000
    1.0720   -0.2125    0.9865 C   0  0  0  0  0  0  0  0  0  0  0  0
    0.3474    0.9788    0.9457 C   0  0  0  0  0  0  0  0  0  0  0  0
   -0.5878    1.1507   -0.0630 C   0  0  0  0  0  0  0  0  0  0  0  0
   -0.8396    0.2266   -1.0132 N   0  0  0  0  0  0  0  0  0  0  0  0
   -0.1172   -0.9216   -0.9550 C   0  0  0  0  0  0  0  0  0  0  0  0
    0.8444   -1.1873    0.0139 C   0  0  0  0  0  0  0  0  0  0  0  0
    1.5757   -2.4711   -0.0205 C   0  0  0  0  0  0  0  0  0  0  0  0
    1.3904   -3.3558   -0.9561 N   0  0  0  0  0  0  0  0  0  0  0  0
    2.2616   -4.4972   -0.6171 C   0  0  0  0  0  0  0  0  0  0  0  0
    3.2988   -3.9552    0.3465 C   0  0  0  0  0  0  0  0  0  0  0  0
    2.5593   -2.8448    1.0546 C   0  0  0  0  0  0  0  0  0  0  0  0
    1.8019   -0.3515    1.7763 H   0  0  0  0  0  0  0  0  0  0  0  0
    0.5095    1.7569    1.6834 H   0  0  0  0  0  0  0  0  0  0  0  0
   -1.1748    2.0616   -0.1346 H   0  0  0  0  0  0  0  0  0  0  0  0
   -0.3477   -1.6427   -1.7358 H   0  0  0  0  0  0  0  0  0  0  0  0
    2.7357   -4.8960   -1.5193 H   0  0  0  0  0  0  0  0  0  0  0  0
    1.6610   -5.2912   -0.1599 H   0  0  0  0  0  0  0  0  0  0  0  0
    3.6832   -4.7175    1.0299 H   0  0  0  0  0  0  0  0  0  0  0  0
    4.1480   -3.5417   -0.2112 H   0  0  0  0  0  0  0  0  0  0  0  0
    2.0156   -3.2086    1.9316 H   0  0  0  0  0  0  0  0  0  0  0  0
    3.2301   -2.0292    1.3297 H   0  0  0  0  0  0  0  0  0  0  0  0
  1  2  2  0  0  0  0
  1 12  1  0  0  0  0
  2  3  1  0  0  0  0
  2 13  1  0  0  0  0
  3  4  2  0  0  0  0
  3 14  1  0  0  0  0
  4  5  1  0  0  0  0
  5  6  2  0  0  0  0
  5 15  1  0  0  0  0
  6  1  1  0  0  0  0
  6  7  1  0  0  0  0
  7  8  2  0  0  0  0
  8  9  1  0  0  0  0
  9 10  1  0  0  0  0
  9 16  1  0  0  0  0
  9 17  1  0  0  0  0
 10 11  1  0  0  0  0
 10 18  1  0  0  0  0
 10 19  1  0  0  0  0
 11  7  1  0  0  0  0
 11 20  1  0  0  0  0
 11 21  1  0  0  0  0
M  END
>  <Mol_ID>
5476

>  <Formula>
C9H10N2

>  <MolWeight>
146.1891

>  <Cat>
S3311

>  <Name>
Myosmine

>  <Synonyms>
N/A

>  <Target>
AChR

>  <Form>
Free Base

>  <CAS>
532-12-7

>  <URL>
https://www.selleckchem.com/products/myosmine.html

$$$$
