Myrcene
 OpenBabel08302521363D

 26 25  0  0  0  0  0  0  0  0999 V2000
    1.4440    1.3239   -1.6782 C   0  0  0  0  0  0  0  0  0  0  0  0
    0.2721    0.6579   -0.9875 C   0  0  0  0  0  0  0  0  0  0  0  0
    2.7560    0.6943   -1.6855 C   0  0  0  0  0  0  0  0  0  0  0  0
    1.2915    2.5377   -2.2368 C   0  0  0  0  0  0  0  0  0  0  0  0
   -0.4818   -0.3369   -1.8832 C   0  0  0  0  0  0  0  0  0  0  0  0
    3.0670   -0.5137   -1.1994 C   0  0  0  0  0  0  0  0  0  0  0  0
   -1.6004   -0.9805   -1.1019 C   0  0  0  0  0  0  0  0  0  0  0  0
   -2.9163   -0.9427   -1.3867 C   0  0  0  0  0  0  0  0  0  0  0  0
   -3.9239   -1.5684   -0.4613 C   0  0  0  0  0  0  0  0  0  0  0  0
   -3.4815   -0.2775   -2.6097 C   0  0  0  0  0  0  0  0  0  0  0  0
    0.6078    0.1694   -0.0630 H   0  0  0  0  0  0  0  0  0  0  0  0
   -0.4373    1.4306   -0.6512 H   0  0  0  0  0  0  0  0  0  0  0  0
    3.5672    1.2759   -2.1239 H   0  0  0  0  0  0  0  0  0  0  0  0
    0.3301    3.0435   -2.2296 H   0  0  0  0  0  0  0  0  0  0  0  0
    2.1107    3.0626   -2.7178 H   0  0  0  0  0  0  0  0  0  0  0  0
   -0.8575    0.1818   -2.7712 H   0  0  0  0  0  0  0  0  0  0  0  0
    0.1926   -1.1247   -2.2375 H   0  0  0  0  0  0  0  0  0  0  0  0
    4.0908   -0.8738   -1.2486 H   0  0  0  0  0  0  0  0  0  0  0  0
    2.3402   -1.1763   -0.7443 H   0  0  0  0  0  0  0  0  0  0  0  0
   -1.2778   -1.5077   -0.2041 H   0  0  0  0  0  0  0  0  0  0  0  0
   -4.6584   -0.8210   -0.1432 H   0  0  0  0  0  0  0  0  0  0  0  0
   -4.4510   -2.3841   -0.9672 H   0  0  0  0  0  0  0  0  0  0  0  0
   -3.4594   -1.9762    0.4429 H   0  0  0  0  0  0  0  0  0  0  0  0
   -3.2799    0.7980   -2.5954 H   0  0  0  0  0  0  0  0  0  0  0  0
   -3.0577   -0.7147   -3.5196 H   0  0  0  0  0  0  0  0  0  0  0  0
   -4.5680   -0.4076   -2.6656 H   0  0  0  0  0  0  0  0  0  0  0  0
  1  2  1  0  0  0  0
  1  3  1  0  0  0  0
  1  4  2  0  0  0  0
  2  5  1  0  0  0  0
  2 11  1  0  0  0  0
  2 12  1  0  0  0  0
  3  6  2  0  0  0  0
  3 13  1  0  0  0  0
  4 14  1  0  0  0  0
  4 15  1  0  0  0  0
  5  7  1  0  0  0  0
  5 16  1  0  0  0  0
  5 17  1  0  0  0  0
  6 18  1  0  0  0  0
  6 19  1  0  0  0  0
  7  8  2  0  0  0  0
  7 20  1  0  0  0  0
  8  9  1  0  0  0  0
  8 10  1  0  0  0  0
  9 21  1  0  0  0  0
  9 22  1  0  0  0  0
  9 23  1  0  0  0  0
 10 24  1  0  0  0  0
 10 25  1  0  0  0  0
 10 26  1  0  0  0  0
M  END
>  <Mol_ID>
7091

>  <Formula>
C10H16

>  <MolWeight>
136.23404

>  <Cat>
E4110

>  <Name>
Myrcene

>  <Synonyms>
Myrcene

>  <Target>
Others

>  <Form>
free base

>  <CAS>
123-35-3

>  <URL>
https://www.selleckchem.com/products/myrcene.html

$$$$
