Myristicin
 OpenBabel08302521253D

 26 27  0  0  0  0  0  0  0  0999 V2000
   -0.2383    0.6885    0.0053 C   0  0  0  0  0  0  0  0  0  0  0  0
    0.9295    1.4263    0.0096 C   0  0  0  0  0  0  0  0  0  0  0  0
    2.1429    0.7173    0.0079 C   0  0  0  0  0  0  0  0  0  0  0  0
    2.1766   -0.6970   -0.0127 C   0  0  0  0  0  0  0  0  0  0  0  0
    0.9689   -1.4073   -0.0216 C   0  0  0  0  0  0  0  0  0  0  0  0
   -0.2107   -0.6916   -0.0094 C   0  0  0  0  0  0  0  0  0  0  0  0
   -1.4535   -1.2482   -0.0056 O   0  0  0  0  0  0  0  0  0  0  0  0
   -2.2742   -0.0711    0.0791 C   0  0  0  0  0  0  0  0  0  0  0  0
   -1.5214    1.1526    0.0180 O   0  0  0  0  0  0  0  0  0  0  0  0
    1.0650    2.7868    0.0193 O   0  0  0  0  0  0  0  0  0  0  0  0
   -0.1342    3.5511    0.0303 C   0  0  0  0  0  0  0  0  0  0  0  0
    3.4931   -1.4390   -0.0116 C   0  0  0  0  0  0  0  0  0  0  0  0
    3.9955   -1.7340    1.3740 C   0  0  0  0  0  0  0  0  0  0  0  0
    4.2295   -2.9654    1.8476 C   0  0  0  0  0  0  0  0  0  0  0  0
    3.0756    1.2780    0.0163 H   0  0  0  0  0  0  0  0  0  0  0  0
    0.9481   -2.4927   -0.0392 H   0  0  0  0  0  0  0  0  0  0  0  0
   -2.9955   -0.0823   -0.7455 H   0  0  0  0  0  0  0  0  0  0  0  0
   -2.8246   -0.0939    1.0273 H   0  0  0  0  0  0  0  0  0  0  0  0
   -0.7266    3.3733   -0.8733 H   0  0  0  0  0  0  0  0  0  0  0  0
   -0.7143    3.3642    0.9399 H   0  0  0  0  0  0  0  0  0  0  0  0
    0.1442    4.6094    0.0336 H   0  0  0  0  0  0  0  0  0  0  0  0
    3.3725   -2.3621   -0.5923 H   0  0  0  0  0  0  0  0  0  0  0  0
    4.2512   -0.8496   -0.5406 H   0  0  0  0  0  0  0  0  0  0  0  0
    4.1860   -0.8773    2.0173 H   0  0  0  0  0  0  0  0  0  0  0  0
    4.5908   -3.1111    2.8611 H   0  0  0  0  0  0  0  0  0  0  0  0
    4.0596   -3.8519    1.2446 H   0  0  0  0  0  0  0  0  0  0  0  0
  1  2  2  0  0  0  0
  2  3  1  0  0  0  0
  2 10  1  0  0  0  0
  3  4  2  0  0  0  0
  3 15  1  0  0  0  0
  4  5  1  0  0  0  0
  4 12  1  0  0  0  0
  5  6  2  0  0  0  0
  5 16  1  0  0  0  0
  6  1  1  0  0  0  0
  6  7  1  0  0  0  0
  7  8  1  0  0  0  0
  8  9  1  0  0  0  0
  8 17  1  0  0  0  0
  8 18  1  0  0  0  0
  9  1  1  0  0  0  0
 10 11  1  0  0  0  0
 11 19  1  0  0  0  0
 11 20  1  0  0  0  0
 11 21  1  0  0  0  0
 12 13  1  0  0  0  0
 12 22  1  0  0  0  0
 12 23  1  0  0  0  0
 13 14  2  0  0  0  0
 13 24  1  0  0  0  0
 14 25  1  0  0  0  0
 14 26  1  0  0  0  0
M  END
>  <Mol_ID>
5162

>  <Formula>
C11H12O3

>  <MolWeight>
192.21118

>  <Cat>
S3291

>  <Name>
Myristicin

>  <Synonyms>
Myristicine

>  <Target>
MAO,P450 (e.g. CYP17)

>  <Form>
free base

>  <CAS>
607-91-0

>  <URL>
http://www.selleckchem.com/products/myristicin.html

$$$$
