N-Acetyl-5-hydroxytryptamine
 OpenBabel08302521293D

 30 31  0  0  0  0  0  0  0  0999 V2000
    3.1435   -0.5656    0.0102 O   0  0  0  0  0  0  0  0  0  0  0  0
   -4.4418   -5.0966    1.0942 O   0  0  0  0  0  0  0  0  0  0  0  0
   -2.1533    0.7950   -0.0427 N   0  0  0  0  0  0  0  0  0  0  0  0
   -3.2560   -4.8378   -0.8593 N   0  0  0  0  0  0  0  0  0  0  0  0
   -1.7534   -1.4039   -0.0666 C   0  0  0  0  0  0  0  0  0  0  0  0
   -1.9277   -2.8967   -0.0560 C   0  0  0  0  0  0  0  0  0  0  0  0
   -0.5015   -0.6998   -0.0421 C   0  0  0  0  0  0  0  0  0  0  0  0
   -0.7852    0.6675   -0.0309 C   0  0  0  0  0  0  0  0  0  0  0  0
   -3.1726   -3.3873   -0.8015 C   0  0  0  0  0  0  0  0  0  0  0  0
   -2.7442   -0.4394   -0.0732 C   0  0  0  0  0  0  0  0  0  0  0  0
    0.8480   -1.1030   -0.0209 C   0  0  0  0  0  0  0  0  0  0  0  0
    0.2128    1.6509   -0.0057 C   0  0  0  0  0  0  0  0  0  0  0  0
    1.8485   -0.1311   -0.0004 C   0  0  0  0  0  0  0  0  0  0  0  0
    1.5450    1.2252    0.0071 C   0  0  0  0  0  0  0  0  0  0  0  0
   -3.8882   -5.5798    0.1144 C   0  0  0  0  0  0  0  0  0  0  0  0
   -3.8516   -7.0609   -0.1508 C   0  0  0  0  0  0  0  0  0  0  0  0
    3.7283    0.2083    0.0303 H   0  0  0  0  0  0  0  0  0  0  0  0
   -2.6474    1.6763   -0.0246 H   0  0  0  0  0  0  0  0  0  0  0  0
   -2.7675   -5.3157   -1.6031 H   0  0  0  0  0  0  0  0  0  0  0  0
   -1.0451   -3.3633   -0.5124 H   0  0  0  0  0  0  0  0  0  0  0  0
   -1.9546   -3.2417    0.9851 H   0  0  0  0  0  0  0  0  0  0  0  0
   -4.0814   -3.0009   -0.3268 H   0  0  0  0  0  0  0  0  0  0  0  0
   -3.1599   -3.0329   -1.8384 H   0  0  0  0  0  0  0  0  0  0  0  0
   -3.8230   -0.5238   -0.0867 H   0  0  0  0  0  0  0  0  0  0  0  0
    1.1147   -2.1549   -0.0214 H   0  0  0  0  0  0  0  0  0  0  0  0
   -0.0337    2.7079    0.0031 H   0  0  0  0  0  0  0  0  0  0  0  0
    2.3322    1.9729    0.0238 H   0  0  0  0  0  0  0  0  0  0  0  0
   -4.3873   -7.2855   -1.0777 H   0  0  0  0  0  0  0  0  0  0  0  0
   -2.8158   -7.4019   -0.2300 H   0  0  0  0  0  0  0  0  0  0  0  0
   -4.3344   -7.5952    0.6724 H   0  0  0  0  0  0  0  0  0  0  0  0
  1 13  1  0  0  0  0
  1 17  1  0  0  0  0
  2 15  2  0  0  0  0
  3  8  1  0  0  0  0
  3 10  1  0  0  0  0
  3 18  1  0  0  0  0
  4  9  1  0  0  0  0
  4 15  1  0  0  0  0
  4 19  1  0  0  0  0
  5  6  1  0  0  0  0
  5  7  1  0  0  0  0
  5 10  2  0  0  0  0
  6  9  1  0  0  0  0
  6 20  1  0  0  0  0
  6 21  1  0  0  0  0
  7  8  2  0  0  0  0
  7 11  1  0  0  0  0
  8 12  1  0  0  0  0
  9 22  1  0  0  0  0
  9 23  1  0  0  0  0
 10 24  1  0  0  0  0
 11 13  2  0  0  0  0
 11 25  1  0  0  0  0
 12 14  2  0  0  0  0
 12 26  1  0  0  0  0
 13 14  1  0  0  0  0
 14 27  1  0  0  0  0
 15 16  1  0  0  0  0
 16 28  1  0  0  0  0
 16 29  1  0  0  0  0
 16 30  1  0  0  0  0
M  END
>  <Mol_ID>
5428

>  <Formula>
C12H14N2O2

>  <MolWeight>
218.25176

>  <Cat>
S2985

>  <Name>
N-Acetyl-5-hydroxytryptamine

>  <Synonyms>
NAS, N-Acetylserotonin, Normelatonin, O-Demethylmelatonin

>  <Target>
Trk receptor

>  <Form>
Free Base

>  <CAS>
1210-83-9

>  <URL>
https://www.selleckchem.com/products/n-acetyl-5-hydroxytryptamine.html

$$$$
