N-Acetyl-DL-methionine
 OpenBabel08302521293D

 25 24  0  0  0  0  0  0  0  0999 V2000
    1.3668    0.0545    0.1380 S   0  0  0  0  0  0  0  0  0  0  0  0
    2.6651   -5.4507    0.6212 O   0  0  0  0  0  0  0  0  0  0  0  0
    2.7881   -4.3738   -1.3468 O   0  0  0  0  0  0  0  0  0  0  0  0
    1.8018   -4.5783    2.9554 O   0  0  0  0  0  0  0  0  0  0  0  0
    3.0184   -2.9351    1.9821 N   0  0  0  0  0  0  0  0  0  0  0  0
    2.4327   -3.0142    0.6342 C   0  0  3  0  0  0  0  0  0  0  0  0
    0.9254   -2.7058    0.5871 C   0  0  0  0  0  0  0  0  0  0  0  0
    0.5270   -1.2973    1.0313 C   0  0  0  0  0  0  0  0  0  0  0  0
    2.6884   -4.3272   -0.1270 C   0  0  0  0  0  0  0  0  0  0  0  0
    2.6056   -3.6574    3.0666 C   0  0  0  0  0  0  0  0  0  0  0  0
    3.2752   -3.2928    4.3600 C   0  0  0  0  0  0  0  0  0  0  0  0
    0.6328   -0.1450   -1.5078 C   0  0  0  0  0  0  0  0  0  0  0  0
    2.3538   -5.2886    1.5432 H   0  0  0  0  0  0  0  0  0  0  0  0
    3.7669   -2.2629    2.1101 H   0  0  0  0  0  0  0  0  0  0  0  0
    2.9897   -2.2618    0.0626 H   0  0  0  0  0  0  0  0  0  0  0  0
    0.3801   -3.4219    1.2147 H   0  0  0  0  0  0  0  0  0  0  0  0
    0.5479   -2.8859   -0.4274 H   0  0  0  0  0  0  0  0  0  0  0  0
    0.7546   -1.1713    2.0954 H   0  0  0  0  0  0  0  0  0  0  0  0
   -0.5562   -1.1650    0.9273 H   0  0  0  0  0  0  0  0  0  0  0  0
    4.3548   -3.4404    4.2717 H   0  0  0  0  0  0  0  0  0  0  0  0
    3.0611   -2.2501    4.6095 H   0  0  0  0  0  0  0  0  0  0  0  0
    2.8949   -3.9323    5.1617 H   0  0  0  0  0  0  0  0  0  0  0  0
    1.2380    0.4085   -2.2307 H   0  0  0  0  0  0  0  0  0  0  0  0
    0.6125   -1.1903   -1.8212 H   0  0  0  0  0  0  0  0  0  0  0  0
   -0.3815    0.2618   -1.5203 H   0  0  0  0  0  0  0  0  0  0  0  0
  1  8  1  0  0  0  0
  1 12  1  0  0  0  0
  2  9  1  0  0  0  0
  2 13  1  0  0  0  0
  3  9  2  0  0  0  0
  4 10  2  0  0  0  0
  5  6  1  0  0  0  0
  5 10  1  0  0  0  0
  5 14  1  0  0  0  0
  6  7  1  0  0  0  0
  6  9  1  0  0  0  0
  6 15  1  0  0  0  0
  7  8  1  0  0  0  0
  7 16  1  0  0  0  0
  7 17  1  0  0  0  0
  8 18  1  0  0  0  0
  8 19  1  0  0  0  0
 10 11  1  0  0  0  0
 11 20  1  0  0  0  0
 11 21  1  0  0  0  0
 11 22  1  0  0  0  0
 12 23  1  0  0  0  0
 12 24  1  0  0  0  0
 12 25  1  0  0  0  0
M  END
>  <Mol_ID>
5441

>  <Formula>
C7H13NO3S

>  <MolWeight>
191.24802

>  <Cat>
S3087

>  <Name>
N-Acetyl-DL-methionine

>  <Synonyms>
N/A

>  <Target>
Glutathione

>  <Form>
Free Base

>  <CAS>
1115-47-5

>  <URL>
https://www.selleckchem.com/products/n-acetyl-dl-methionine.html

$$$$
