N-Acetyl-L-tryptophan
 OpenBabel08302521363D

 32 33  0  0  1  0  0  0  0  0999 V2000
    2.9132    0.0898    1.3783 C   0  0  0  0  0  0  0  0  0  0  0  0
    2.4437    0.0868   -0.0850 C   0  0  2  0  0  0  0  0  0  0  0  0
    2.8069   -1.1471   -0.7790 N   0  0  0  0  0  0  0  0  0  0  0  0
    3.0704    1.2309   -0.8801 C   0  0  0  0  0  0  0  0  0  0  0  0
    1.9934   -2.2503   -0.7480 C   0  0  0  0  0  0  0  0  0  0  0  0
    2.2300    1.7719   -1.7983 O   0  0  0  0  0  0  0  0  0  0  0  0
    4.2561    1.5337   -0.8407 O   0  0  0  0  0  0  0  0  0  0  0  0
    2.5055   -3.4306   -1.5266 C   0  0  0  0  0  0  0  0  0  0  0  0
    0.9222   -2.2701   -0.1513 O   0  0  0  0  0  0  0  0  0  0  0  0
    1.2038    1.8125    2.3787 C   0  0  0  0  0  0  0  0  0  0  0  0
    2.5292    1.3439    2.1028 C   0  0  0  0  0  0  0  0  0  0  0  0
    1.3220    3.0715    2.9675 C   0  0  0  0  0  0  0  0  0  0  0  0
   -0.0889    1.2964    2.1513 C   0  0  0  0  0  0  0  0  0  0  0  0
    3.4008    2.2982    2.5894 C   0  0  0  0  0  0  0  0  0  0  0  0
    2.6659    3.3313    3.1029 N   0  0  0  0  0  0  0  0  0  0  0  0
    0.2153    3.8529    3.3162 C   0  0  0  0  0  0  0  0  0  0  0  0
   -1.2076    2.0653    2.4921 C   0  0  0  0  0  0  0  0  0  0  0  0
   -1.0548    3.3275    3.0602 C   0  0  0  0  0  0  0  0  0  0  0  0
    2.4849   -0.7705    1.9085 H   0  0  0  0  0  0  0  0  0  0  0  0
    4.0030   -0.0417    1.4216 H   0  0  0  0  0  0  0  0  0  0  0  0
    1.3545    0.1923   -0.1122 H   0  0  0  0  0  0  0  0  0  0  0  0
    3.7269   -1.1996   -1.2055 H   0  0  0  0  0  0  0  0  0  0  0  0
    1.3418    1.3639   -1.8031 H   0  0  0  0  0  0  0  0  0  0  0  0
    2.6827   -4.2637   -0.8419 H   0  0  0  0  0  0  0  0  0  0  0  0
    1.7558   -3.7145   -2.2707 H   0  0  0  0  0  0  0  0  0  0  0  0
    3.4375   -3.1987   -2.0491 H   0  0  0  0  0  0  0  0  0  0  0  0
   -0.2261    0.3100    1.7154 H   0  0  0  0  0  0  0  0  0  0  0  0
    4.4827    2.3416    2.5854 H   0  0  0  0  0  0  0  0  0  0  0  0
    3.0492    4.1762    3.5037 H   0  0  0  0  0  0  0  0  0  0  0  0
    0.3308    4.8349    3.7625 H   0  0  0  0  0  0  0  0  0  0  0  0
   -2.2040    1.6715    2.3098 H   0  0  0  0  0  0  0  0  0  0  0  0
   -1.9360    3.9126    3.3135 H   0  0  0  0  0  0  0  0  0  0  0  0
  1 11  1  0  0  0  0
  1 19  1  0  0  0  0
  1 20  1  0  0  0  0
  2  4  1  0  0  0  0
  2 21  1  6  0  0  0
  2  3  1  0  0  0  0
  2  1  1  0  0  0  0
  3  5  1  0  0  0  0
  3 22  1  0  0  0  0
  4  6  1  0  0  0  0
  4  7  2  0  0  0  0
  5  8  1  0  0  0  0
  5  9  2  0  0  0  0
  6 23  1  0  0  0  0
  8 24  1  0  0  0  0
  8 25  1  0  0  0  0
  8 26  1  0  0  0  0
 10 11  1  0  0  0  0
 10 12  2  0  0  0  0
 10 13  1  0  0  0  0
 11 14  2  0  0  0  0
 12 15  1  0  0  0  0
 12 16  1  0  0  0  0
 13 17  2  0  0  0  0
 13 27  1  0  0  0  0
 14 15  1  0  0  0  0
 14 28  1  0  0  0  0
 15 29  1  0  0  0  0
 16 18  2  0  0  0  0
 16 30  1  0  0  0  0
 17 18  1  0  0  0  0
 17 31  1  0  0  0  0
 18 32  1  0  0  0  0
M  END
>  <Mol_ID>
7179

>  <Formula>
C13H14N2O3

>  <MolWeight>
246.26186

>  <Cat>
E4178

>  <Name>
N-Acetyl-L-tryptophan

>  <Synonyms>
N-Acetyl-L-tryptophan

>  <Target>
Endogenous Metabolite;Neurokinin Receptor

>  <Form>
free base

>  <CAS>
1218-34-4

>  <URL>
https://www.selleckchem.com/products/n-acetyl-l-tryptophan.html

$$$$
