N¦Á-Acetyl-L-asparagine
 OpenBabel08302521293D

 22 21  0  0  0  0  0  0  0  0999 V2000
    0.8540    0.7325   -1.1151 O   0  0  0  0  0  0  0  0  0  0  0  0
    1.1380    1.5023    0.9601 O   0  0  0  0  0  0  0  0  0  0  0  0
   -0.5114   -1.6873    0.5957 O   0  0  0  0  0  0  0  0  0  0  0  0
   -3.5842    1.7833   -1.1231 O   0  0  0  0  0  0  0  0  0  0  0  0
   -1.7478    0.4257   -0.9802 N   0  0  0  0  0  0  0  0  0  0  0  0
   -1.3901   -1.7941    2.6657 N   0  0  0  0  0  0  0  0  0  0  0  0
   -1.1510    1.0390    0.2050 C   0  0  1  0  0  0  0  0  0  0  0  0
   -1.5463    0.3193    1.4945 C   0  0  0  0  0  0  0  0  0  0  0  0
    0.3736    1.1157    0.0881 C   0  0  0  0  0  0  0  0  0  0  0  0
   -1.0917   -1.1237    1.5163 C   0  0  0  0  0  0  0  0  0  0  0  0
   -2.9127    0.8533   -1.5554 C   0  0  0  0  0  0  0  0  0  0  0  0
   -3.2947    0.0623   -2.7762 C   0  0  0  0  0  0  0  0  0  0  0  0
    1.8257    0.8173   -1.0222 H   0  0  0  0  0  0  0  0  0  0  0  0
   -1.2149   -0.3295   -1.4027 H   0  0  0  0  0  0  0  0  0  0  0  0
   -1.8082   -1.3540    3.4738 H   0  0  0  0  0  0  0  0  0  0  0  0
   -1.0948   -2.7595    2.7391 H   0  0  0  0  0  0  0  0  0  0  0  0
   -1.5042    2.0760    0.2551 H   0  0  0  0  0  0  0  0  0  0  0  0
   -1.0995    0.8250    2.3598 H   0  0  0  0  0  0  0  0  0  0  0  0
   -2.6357    0.3355    1.6173 H   0  0  0  0  0  0  0  0  0  0  0  0
   -2.5345    0.1890   -3.5528 H   0  0  0  0  0  0  0  0  0  0  0  0
   -3.3851   -0.9968   -2.5182 H   0  0  0  0  0  0  0  0  0  0  0  0
   -4.2559    0.4140   -3.1597 H   0  0  0  0  0  0  0  0  0  0  0  0
  1  9  1  0  0  0  0
  1 13  1  0  0  0  0
  2  9  2  0  0  0  0
  3 10  2  0  0  0  0
  4 11  2  0  0  0  0
  5 11  1  0  0  0  0
  5 14  1  0  0  0  0
  6 10  1  0  0  0  0
  6 15  1  0  0  0  0
  6 16  1  0  0  0  0
  7  5  1  0  0  0  0
  7  8  1  0  0  0  0
  7  9  1  0  0  0  0
  7 17  1  1  0  0  0
  8 10  1  0  0  0  0
  8 18  1  0  0  0  0
  8 19  1  0  0  0  0
 11 12  1  0  0  0  0
 12 20  1  0  0  0  0
 12 21  1  0  0  0  0
 12 22  1  0  0  0  0
M  END
>  <Mol_ID>
5431

>  <Formula>
C6H10N2O4

>  <MolWeight>
174.1546

>  <Cat>
S2989

>  <Name>
N¦Á-Acetyl-L-asparagine

>  <Synonyms>
N-Acetylasparagine, (S)-2-acetamido-4-amino-4-oxobutanoic acid

>  <Target>
Others

>  <Form>
Free Base

>  <CAS>
4033-40-3

>  <URL>
https://www.selleckchem.com/products/n-acetyl-l-asparagine.html

$$$$
