N-Acetyl-D-galactosamine
 OpenBabel08302521293D

 30 29  0  0  0  0  0  0  0  0999 V2000
    5.6142   -2.4198    0.4723 O   0  0  0  0  0  0  0  0  0  0  0  0
    4.6318    0.5278   -1.5146 O   0  0  0  0  0  0  0  0  0  0  0  0
    7.2926   -0.1274   -1.4428 O   0  0  0  0  0  0  0  0  0  0  0  0
    7.5594   -1.1320   -4.0363 O   0  0  0  0  0  0  0  0  0  0  0  0
    2.4595    0.5935   -0.1599 O   0  0  0  0  0  0  0  0  0  0  0  0
    3.7838   -2.0189    4.5723 O   0  0  0  0  0  0  0  0  0  0  0  0
    4.0223   -1.2388    2.4973 N   0  0  0  0  0  0  0  0  0  0  0  0
    5.0581   -1.1062    0.2683 C   0  0  1  0  0  0  0  0  0  0  0  0
    4.9674   -0.8433   -1.2586 C   0  0  2  0  0  0  0  0  0  0  0  0
    3.7301   -1.0675    1.0594 C   0  0  2  0  0  0  0  0  0  0  0  0
    6.3321   -1.0817   -1.9494 C   0  0  1  0  0  0  0  0  0  0  0  0
    6.2680   -0.8824   -3.4712 C   0  0  0  0  0  0  0  0  0  0  0  0
    2.9312    0.2171    0.9120 C   0  0  0  0  0  0  0  0  0  0  0  0
    3.4698   -2.1094    3.3861 C   0  0  0  0  0  0  0  0  0  0  0  0
    2.5032   -3.1424    2.8886 C   0  0  0  0  0  0  0  0  0  0  0  0
    5.8288   -2.4959    1.4211 H   0  0  0  0  0  0  0  0  0  0  0  0
    3.6628    0.6349   -1.3818 H   0  0  0  0  0  0  0  0  0  0  0  0
    6.8119    0.7256   -1.4321 H   0  0  0  0  0  0  0  0  0  0  0  0
    8.1947   -0.7059   -3.4285 H   0  0  0  0  0  0  0  0  0  0  0  0
    4.6363   -0.5641    2.9509 H   0  0  0  0  0  0  0  0  0  0  0  0
    5.7526   -0.3778    0.7077 H   0  0  0  0  0  0  0  0  0  0  0  0
    4.2148   -1.4965   -1.7165 H   0  0  0  0  0  0  0  0  0  0  0  0
    3.0802   -1.8891    0.7380 H   0  0  0  0  0  0  0  0  0  0  0  0
    6.7291   -2.0801   -1.7386 H   0  0  0  0  0  0  0  0  0  0  0  0
    5.5538   -1.5673   -3.9371 H   0  0  0  0  0  0  0  0  0  0  0  0
    6.0016    0.1464   -3.7339 H   0  0  0  0  0  0  0  0  0  0  0  0
    2.7829    0.8170    1.8273 H   0  0  0  0  0  0  0  0  0  0  0  0
    1.5976   -2.6585    2.5130 H   0  0  0  0  0  0  0  0  0  0  0  0
    2.9668   -3.7484    2.1059 H   0  0  0  0  0  0  0  0  0  0  0  0
    2.2274   -3.8059    3.7154 H   0  0  0  0  0  0  0  0  0  0  0  0
  1 16  1  0  0  0  0
  2 17  1  0  0  0  0
  3 18  1  0  0  0  0
  4 12  1  0  0  0  0
  4 19  1  0  0  0  0
  5 13  2  0  0  0  0
  6 14  2  0  0  0  0
  7 14  1  0  0  0  0
  7 20  1  0  0  0  0
  8  1  1  0  0  0  0
  8  9  1  0  0  0  0
  8 10  1  0  0  0  0
  8 21  1  1  0  0  0
  9  2  1  0  0  0  0
  9 22  1  6  0  0  0
 10  7  1  0  0  0  0
 10 13  1  0  0  0  0
 10 23  1  6  0  0  0
 11 12  1  0  0  0  0
 11 24  1  1  0  0  0
 11  3  1  0  0  0  0
 11  9  1  0  0  0  0
 12 25  1  0  0  0  0
 12 26  1  0  0  0  0
 13 27  1  0  0  0  0
 14 15  1  0  0  0  0
 15 28  1  0  0  0  0
 15 29  1  0  0  0  0
 15 30  1  0  0  0  0
M  END
>  <Mol_ID>
5461

>  <Formula>
C8H15NO6

>  <MolWeight>
221.2078

>  <Cat>
S3128

>  <Name>
N-Acetyl-D-galactosamine

>  <Synonyms>
D-N-Acetylgalactosamine

>  <Target>
Others

>  <Form>
Free Base

>  <CAS>
1811-31-0

>  <URL>
https://www.selleckchem.com/products/n-acetyl-d-galactosamine.html

$$$$
