N-Acetylcysteine amide
 OpenBabel08302520353D

 20 19  0  0  0  0  0  0  0  0999 V2000
    1.0319   -0.1197    0.0141 C   0  0  0  0  0  0  0  0  0  0  0  0
   -0.7560   -1.6970   -0.2522 N   0  0  0  0  0  0  0  0  0  0  0  0
    0.2738   -0.9794   -1.0221 C   0  0  1  0  0  0  0  0  0  0  0  0
   -0.3229   -0.1071   -2.1354 C   0  0  0  0  0  0  0  0  0  0  0  0
    0.9337    0.7558   -3.1386 S   0  0  0  0  0  0  0  0  0  0  0  0
    1.0303    1.1070    0.0383 O   0  0  0  0  0  0  0  0  0  0  0  0
    1.7127   -0.8201    0.9709 N   0  0  0  0  0  0  0  0  0  0  0  0
   -1.5324   -2.7601   -0.5824 C   0  0  0  0  0  0  0  0  0  0  0  0
   -2.3294   -3.1858    0.2544 O   0  0  0  0  0  0  0  0  0  0  0  0
   -1.4067   -3.3881   -1.9401 C   0  0  0  0  0  0  0  0  0  0  0  0
   -0.9569   -1.3537    0.6825 H   0  0  0  0  0  0  0  0  0  0  0  0
    0.9602   -1.7244   -1.4419 H   0  0  0  0  0  0  0  0  0  0  0  0
   -0.8937   -0.7194   -2.8355 H   0  0  0  0  0  0  0  0  0  0  0  0
   -1.0106    0.6390   -1.7246 H   0  0  0  0  0  0  0  0  0  0  0  0
    1.2525    1.6644   -2.1961 H   0  0  0  0  0  0  0  0  0  0  0  0
    1.7530   -1.8300    0.9943 H   0  0  0  0  0  0  0  0  0  0  0  0
    2.2205   -0.2940    1.6716 H   0  0  0  0  0  0  0  0  0  0  0  0
   -1.6771   -2.6776   -2.7219 H   0  0  0  0  0  0  0  0  0  0  0  0
   -0.3952   -3.7681   -2.0953 H   0  0  0  0  0  0  0  0  0  0  0  0
   -2.1079   -4.2271   -2.0085 H   0  0  0  0  0  0  0  0  0  0  0  0
  1  3  1  0  0  0  0
  1  6  2  0  0  0  0
  1  7  1  0  0  0  0
  2  8  1  0  0  0  0
  2 11  1  0  0  0  0
  3  2  1  0  0  0  0
  3  4  1  0  0  0  0
  3 12  1  6  0  0  0
  4  5  1  0  0  0  0
  4 13  1  0  0  0  0
  4 14  1  0  0  0  0
  5 15  1  0  0  0  0
  7 16  1  0  0  0  0
  7 17  1  0  0  0  0
  8  9  2  0  0  0  0
  8 10  1  0  0  0  0
 10 18  1  0  0  0  0
 10 19  1  0  0  0  0
 10 20  1  0  0  0  0
M  END
>  <Mol_ID>
3432

>  <Formula>
C5H10N2O2S

>  <MolWeight>
162.2101

>  <Cat>
S5804

>  <Name>
N-Acetylcysteine amide

>  <Synonyms>
N/A

>  <Target>
HIF,Immunology & Inflammation related,NF-¦ÊB,ROS

>  <Form>
Free Base

>  <CAS>
38520-57-9

>  <URL>
http://www.selleckchem.com/products/n-acetylcysteine-amide.html

$$$$
