N-Butanoyl-L-homoserine lactone
 OpenBabel08302521313D

 25 25  0  0  0  0  0  0  0  0999 V2000
    1.0068   -0.1260    0.0673 C   0  0  0  0  0  0  0  0  0  0  0  0
    0.3818   -0.0937   -1.3098 C   0  0  0  0  0  0  0  0  0  0  0  0
    0.8427   -1.3015   -2.1282 C   0  0  0  0  0  0  0  0  0  0  0  0
    0.1772   -1.3680   -3.4908 C   0  0  0  0  0  0  0  0  0  0  0  0
    0.3490   -0.2570    1.0941 O   0  0  0  0  0  0  0  0  0  0  0  0
    2.3810   -0.0722    0.0633 N   0  0  0  0  0  0  0  0  0  0  0  0
    5.3352   -1.3630    1.3953 O   0  0  0  0  0  0  0  0  0  0  0  0
    4.6347   -0.2630    1.0020 C   0  0  0  0  0  0  0  0  0  0  0  0
    3.1529   -0.4607    1.2319 C   0  0  2  0  0  0  0  0  0  0  0  0
    3.0468   -1.9483    1.4919 C   0  0  0  0  0  0  0  0  0  0  0  0
    4.4435   -2.3757    1.8554 C   0  0  0  0  0  0  0  0  0  0  0  0
    5.1517    0.7263    0.4982 O   0  0  0  0  0  0  0  0  0  0  0  0
   -0.7075   -0.1109   -1.1900 H   0  0  0  0  0  0  0  0  0  0  0  0
    0.6467    0.8474   -1.8046 H   0  0  0  0  0  0  0  0  0  0  0  0
    1.9284   -1.2676   -2.2747 H   0  0  0  0  0  0  0  0  0  0  0  0
    0.6342   -2.2281   -1.5766 H   0  0  0  0  0  0  0  0  0  0  0  0
    0.3191   -0.4347   -4.0445 H   0  0  0  0  0  0  0  0  0  0  0  0
    0.6132   -2.1812   -4.0792 H   0  0  0  0  0  0  0  0  0  0  0  0
   -0.8964   -1.5571   -3.3939 H   0  0  0  0  0  0  0  0  0  0  0  0
    2.8791    0.1399   -0.7942 H   0  0  0  0  0  0  0  0  0  0  0  0
    2.8370    0.1230    2.1041 H   0  0  0  0  0  0  0  0  0  0  0  0
    2.3286   -2.1851    2.2839 H   0  0  0  0  0  0  0  0  0  0  0  0
    2.7145   -2.4907    0.5977 H   0  0  0  0  0  0  0  0  0  0  0  0
    4.5722   -2.4957    2.9343 H   0  0  0  0  0  0  0  0  0  0  0  0
    4.7043   -3.3218    1.3685 H   0  0  0  0  0  0  0  0  0  0  0  0
  1  2  1  0  0  0  0
  1  5  2  0  0  0  0
  1  6  1  0  0  0  0
  2  3  1  0  0  0  0
  2 13  1  0  0  0  0
  2 14  1  0  0  0  0
  3  4  1  0  0  0  0
  3 15  1  0  0  0  0
  3 16  1  0  0  0  0
  4 17  1  0  0  0  0
  4 18  1  0  0  0  0
  4 19  1  0  0  0  0
  6 20  1  0  0  0  0
  7  8  1  0  0  0  0
  7 11  1  0  0  0  0
  8  9  1  0  0  0  0
  8 12  2  0  0  0  0
  9 10  1  0  0  0  0
  9  6  1  0  0  0  0
  9 21  1  1  0  0  0
 10 11  1  0  0  0  0
 10 22  1  0  0  0  0
 10 23  1  0  0  0  0
 11 24  1  0  0  0  0
 11 25  1  0  0  0  0
M  END
>  <Mol_ID>
5990

>  <Formula>
C8H13NO3

>  <MolWeight>
171.19372

>  <Cat>
S0651

>  <Name>
N-Butanoyl-L-homoserine lactone

>  <Synonyms>
C4-HSL, N-Butyryl-L-homoserine lactone

>  <Target>
ADC Linker

>  <Form>
Free Base

>  <CAS>
67605-85-0

>  <URL>
http://www.selleckchem.com/products/n-butanoyl-l-homoserine-lactone.html

$$$$
