N-Ethyl-N-(2-hydroxy-3-sulfopropyl)-3-toluidine
 OpenBabel08302521343D

 36 36  0  0  0  0  0  0  0  0999 V2000
    1.1238   -0.0354    0.1637 N   0  0  0  0  0  0  0  0  0  0  0  0
    0.2722   -1.2312   -0.0071 C   0  0  0  0  0  0  0  0  0  0  0  0
    0.4479    1.2655    0.0438 C   0  0  0  0  0  0  0  0  0  0  0  0
    0.6898   -2.4492    0.8424 C   0  0  3  0  0  0  0  0  0  0  0  0
    0.4227    1.7416   -1.4058 C   0  0  0  0  0  0  0  0  0  0  0  0
    0.7988   -2.2191    2.3479 C   0  0  0  0  0  0  0  0  0  0  0  0
   -0.1399   -3.5843    0.5170 O   0  0  0  0  0  0  0  0  0  0  0  0
   -0.7421   -1.8526    3.1358 S   0  0  0  0  0  0  0  0  0  0  0  0
   -1.6182   -2.9115    2.6236 O   0  0  0  0  0  0  0  0  0  0  0  0
   -0.4262   -1.9610    4.5582 O   0  0  0  0  0  0  0  0  0  0  0  0
   -1.0898   -0.5104    2.6879 O   0  5  0  0  0  0  0  0  0  0  0  0
    5.5149    1.6564    1.6730 C   0  0  0  0  0  0  0  0  0  0  0  0
    2.5079   -0.0818    0.0632 C   0  0  0  0  0  0  0  0  0  0  0  0
    3.3059    0.8007    0.8115 C   0  0  0  0  0  0  0  0  0  0  0  0
    3.1792   -1.0258   -0.7235 C   0  0  0  0  0  0  0  0  0  0  0  0
    4.7078    0.7275    0.8171 C   0  0  0  0  0  0  0  0  0  0  0  0
    4.5750   -1.1178   -0.7301 C   0  0  0  0  0  0  0  0  0  0  0  0
    5.3376   -0.2468    0.0424 C   0  0  0  0  0  0  0  0  0  0  0  0
   -0.7773   -0.9944    0.2073 H   0  0  0  0  0  0  0  0  0  0  0  0
    0.2619   -1.5152   -1.0681 H   0  0  0  0  0  0  0  0  0  0  0  0
   -0.5830    1.1971    0.4098 H   0  0  0  0  0  0  0  0  0  0  0  0
    0.9226    2.0309    0.6662 H   0  0  0  0  0  0  0  0  0  0  0  0
    1.6840   -2.7678    0.5191 H   0  0  0  0  0  0  0  0  0  0  0  0
   -0.2048    1.0891   -2.0216 H   0  0  0  0  0  0  0  0  0  0  0  0
    0.0155    2.7563   -1.4647 H   0  0  0  0  0  0  0  0  0  0  0  0
    1.4246    1.7570   -1.8476 H   0  0  0  0  0  0  0  0  0  0  0  0
    1.1555   -3.1450    2.8165 H   0  0  0  0  0  0  0  0  0  0  0  0
    1.5027   -1.4201    2.5954 H   0  0  0  0  0  0  0  0  0  0  0  0
   -0.9133   -3.5388    1.1361 H   0  0  0  0  0  0  0  0  0  0  0  0
    6.1049    1.0853    2.3967 H   0  0  0  0  0  0  0  0  0  0  0  0
    6.1861    2.2565    1.0510 H   0  0  0  0  0  0  0  0  0  0  0  0
    4.8742    2.3448    2.2349 H   0  0  0  0  0  0  0  0  0  0  0  0
    2.8234    1.5257    1.4628 H   0  0  0  0  0  0  0  0  0  0  0  0
    2.6168   -1.7192   -1.3431 H   0  0  0  0  0  0  0  0  0  0  0  0
    5.0595   -1.8839   -1.3281 H   0  0  0  0  0  0  0  0  0  0  0  0
    6.4199   -0.3408    0.0487 H   0  0  0  0  0  0  0  0  0  0  0  0
  1  2  1  0  0  0  0
  1  3  1  0  0  0  0
  1 13  1  0  0  0  0
  2  4  1  0  0  0  0
  2 19  1  0  0  0  0
  2 20  1  0  0  0  0
  3  5  1  0  0  0  0
  3 21  1  0  0  0  0
  3 22  1  0  0  0  0
  4  6  1  0  0  0  0
  4  7  1  0  0  0  0
  4 23  1  0  0  0  0
  5 24  1  0  0  0  0
  5 25  1  0  0  0  0
  5 26  1  0  0  0  0
  6  8  1  0  0  0  0
  6 27  1  0  0  0  0
  6 28  1  0  0  0  0
  7 29  1  0  0  0  0
  8  9  2  0  0  0  0
  8 10  2  0  0  0  0
  8 11  1  0  0  0  0
 12 16  1  0  0  0  0
 12 30  1  0  0  0  0
 12 31  1  0  0  0  0
 12 32  1  0  0  0  0
 13 14  2  0  0  0  0
 13 15  1  0  0  0  0
 14 16  1  0  0  0  0
 14 33  1  0  0  0  0
 15 17  2  0  0  0  0
 15 34  1  0  0  0  0
 16 18  2  0  0  0  0
 17 18  1  0  0  0  0
 17 35  1  0  0  0  0
 18 36  1  0  0  0  0
M  CHG  1  11  -1
M  END
>  <Mol_ID>
6477

>  <Formula>
C12H18NNaO4S

>  <MolWeight>
295.33039

>  <Cat>
E2637

>  <Name>
N-Ethyl-N-(2-hydroxy-3-sulfopropyl)-3-toluidine

>  <Synonyms>
TOOS

>  <Target>
Others

>  <Form>
free base

>  <CAS>
82692-93-1

>  <URL>
http://www.selleckchem.com/products/n-ethyl-n--2-hydroxy-3-sulfopropyl--3-toluidine.html

$$$$
