N-Formyl-L-methionine
 OpenBabel08302521292D

 22 21  0  0  0  0  0  0  0  0999 V2000
    0.0000    1.4049    0.0000 C   0  0  0  0  0  0  0  0  0  0  0  0
    1.2124    0.7049    0.0000 S   0  0  0  0  0  0  0  0  0  0  0  0
    2.4249    1.4049    0.0000 C   0  0  0  0  0  0  0  0  0  0  0  0
    3.6373    0.7049    0.0000 C   0  0  0  0  0  0  0  0  0  0  0  0
    4.8497    1.4049    0.0000 C   0  0  2  0  0  0  0  0  0  0  0  0
    6.0622    0.7049    0.0000 N   0  0  0  0  0  0  0  0  0  0  0  0
    7.2746    1.4049    0.0000 C   0  0  0  0  0  0  0  0  0  0  0  0
    8.4870    0.7049    0.0000 O   0  0  0  0  0  0  0  0  0  0  0  0
    4.8497    2.8049    0.0000 C   0  0  0  0  0  0  0  0  0  0  0  0
    3.6373    3.5049    0.0000 O   0  0  0  0  0  0  0  0  0  0  0  0
    6.0622    3.5049    0.0000 O   0  0  0  0  0  0  0  0  0  0  0  0
    0.0000    2.4749    0.0000 H   0  0  0  0  0  0  0  0  0  0  0  0
   -0.9267    0.8699    0.0000 H   0  0  0  0  0  0  0  0  0  0  0  0
   -0.9266    1.9399    0.0000 H   0  0  0  0  0  0  0  0  0  0  0  0
    2.4249    2.4749    0.0000 H   0  0  0  0  0  0  0  0  0  0  0  0
    3.3516    1.9399    0.0000 H   0  0  0  0  0  0  0  0  0  0  0  0
    3.6373   -0.3651    0.0000 H   0  0  0  0  0  0  0  0  0  0  0  0
    4.5640    0.1699    0.0000 H   0  0  0  0  0  0  0  0  0  0  0  0
    4.8497    0.3349    0.0000 H   0  0  0  0  0  0  0  0  0  0  0  0
    7.2746    2.4369    0.0000 H   0  0  0  0  0  0  0  0  0  0  0  0
    8.4870   -0.2321    0.0000 H   0  0  0  0  0  0  0  0  0  0  0  0
    6.8737    3.0364    0.0000 H   0  0  0  0  0  0  0  0  0  0  0  0
  1  2  1  0  0  0  0
  1 12  1  0  0  0  0
  1 13  1  0  0  0  0
  1 14  1  0  0  0  0
  2  3  1  0  0  0  0
  3  4  1  0  0  0  0
  3 15  1  0  0  0  0
  3 16  1  0  0  0  0
  4 17  1  0  0  0  0
  4 18  1  0  0  0  0
  5  4  1  0  0  0  0
  5  6  1  0  0  0  0
  5  9  1  0  0  0  0
  5 19  1  6  0  0  0
  6  7  2  0  0  0  0
  7  8  1  0  0  0  0
  7 20  1  0  0  0  0
  8 21  1  0  0  0  0
  9 10  2  0  0  0  0
  9 11  1  0  0  0  0
 11 22  1  0  0  0  0
M  END
>  <Mol_ID>
5491

>  <Formula>
C6H11NO3S

>  <MolWeight>
177.22144

>  <Cat>
S3328

>  <Name>
N-Formyl-L-methionine

>  <Synonyms>
For-Met-OH

>  <Target>
Others

>  <Form>
Free Base

>  <CAS>
4289-98-9

>  <URL>
https://www.selleckchem.com/products/n-formyl-l-methionine.html

$$$$
