N-Formyl-Met-Leu-Phe (fMLP)
 OpenBabel08302521373D

 61 61  0  0  1  0  0  0  0  0999 V2000
   -0.0195    4.0322    4.4548 C   0  0  1  0  0  0  0  0  0  0  0  0
    1.3976    3.5291    4.8146 C   0  0  0  0  0  0  0  0  0  0  0  0
   -0.2670    3.6488    3.0667 N   0  0  0  0  0  0  0  0  0  0  0  0
   -1.1387    3.5293    5.3809 C   0  0  0  0  0  0  0  0  0  0  0  0
    1.7892    3.7302    6.1113 N   0  0  0  0  0  0  0  0  0  0  0  0
    2.1245    2.9679    3.9926 O   0  0  0  0  0  0  0  0  0  0  0  0
   -0.4272    4.5855    2.0676 C   0  0  0  0  0  0  0  0  0  0  0  0
   -1.4380    2.0125    5.3613 C   0  0  0  0  0  0  0  0  0  0  0  0
    3.0108    3.1450    6.6647 C   0  0  1  0  0  0  0  0  0  0  0  0
   -0.1944    4.0296    0.6329 C   0  0  2  0  0  0  0  0  0  0  0  0
   -0.7158    5.7567    2.2990 O   0  0  0  0  0  0  0  0  0  0  0  0
   -0.2836    1.1391    5.8522 C   0  0  0  0  0  0  0  0  0  0  0  0
   -2.6659    1.7251    6.2329 C   0  0  0  0  0  0  0  0  0  0  0  0
    4.2316    4.0442    6.4504 C   0  0  0  0  0  0  0  0  0  0  0  0
    2.7567    2.8111    8.1402 C   0  0  0  0  0  0  0  0  0  0  0  0
   -1.4224    4.1683   -0.2736 C   0  0  0  0  0  0  0  0  0  0  0  0
    0.1845    2.6077    0.6707 N   0  0  0  0  0  0  0  0  0  0  0  0
    3.7830    2.1956    8.7712 O   0  0  0  0  0  0  0  0  0  0  0  0
    1.6934    3.0337    8.7088 O   0  0  0  0  0  0  0  0  0  0  0  0
   -1.9692    5.5770   -0.5028 C   0  0  0  0  0  0  0  0  0  0  0  0
    1.4332    2.1308    0.4040 C   0  0  0  0  0  0  0  0  0  0  0  0
   -0.7481    6.7106   -1.2340 S   0  0  0  0  0  0  0  0  0  0  0  0
    1.7109    0.9454    0.5024 O   0  0  0  0  0  0  0  0  0  0  0  0
   -1.7519    8.2186   -1.2270 C   0  0  0  0  0  0  0  0  0  0  0  0
    4.1394    5.4217    7.0645 C   0  0  0  0  0  0  0  0  0  0  0  0
    4.6004    5.6622    8.3661 C   0  0  0  0  0  0  0  0  0  0  0  0
    3.6293    6.4917    6.3160 C   0  0  0  0  0  0  0  0  0  0  0  0
    4.6122    6.9594    8.8812 C   0  0  0  0  0  0  0  0  0  0  0  0
    3.6353    7.7858    6.8364 C   0  0  0  0  0  0  0  0  0  0  0  0
    4.1449    8.0223    8.1110 C   0  0  0  0  0  0  0  0  0  0  0  0
    0.0248    5.1265    4.5224 H   0  0  0  0  0  0  0  0  0  0  0  0
    0.1964    2.7887    2.7806 H   0  0  0  0  0  0  0  0  0  0  0  0
   -0.9387    3.8457    6.4121 H   0  0  0  0  0  0  0  0  0  0  0  0
   -2.0599    4.0522    5.0850 H   0  0  0  0  0  0  0  0  0  0  0  0
    1.1631    4.1781    6.7821 H   0  0  0  0  0  0  0  0  0  0  0  0
   -1.6822    1.7129    4.3352 H   0  0  0  0  0  0  0  0  0  0  0  0
    3.1782    2.1871    6.1544 H   0  0  0  0  0  0  0  0  0  0  0  0
    0.6604    4.5828    0.2267 H   0  0  0  0  0  0  0  0  0  0  0  0
    0.0255    1.4204    6.8643 H   0  0  0  0  0  0  0  0  0  0  0  0
   -0.5777    0.0846    5.8724 H   0  0  0  0  0  0  0  0  0  0  0  0
    0.5822    1.1961    5.1913 H   0  0  0  0  0  0  0  0  0  0  0  0
   -3.5366    2.2895    5.8846 H   0  0  0  0  0  0  0  0  0  0  0  0
   -2.9228    0.6609    6.2000 H   0  0  0  0  0  0  0  0  0  0  0  0
   -2.4803    1.9947    7.2787 H   0  0  0  0  0  0  0  0  0  0  0  0
    5.1346    3.5556    6.8372 H   0  0  0  0  0  0  0  0  0  0  0  0
    4.4116    4.1592    5.3735 H   0  0  0  0  0  0  0  0  0  0  0  0
   -1.1851    3.7219   -1.2498 H   0  0  0  0  0  0  0  0  0  0  0  0
   -2.2380    3.5569    0.1361 H   0  0  0  0  0  0  0  0  0  0  0  0
   -0.4907    1.9137    0.9744 H   0  0  0  0  0  0  0  0  0  0  0  0
    4.5668    2.0099    8.2208 H   0  0  0  0  0  0  0  0  0  0  0  0
   -2.8088    5.5063   -1.2036 H   0  0  0  0  0  0  0  0  0  0  0  0
   -2.3599    5.9976    0.4274 H   0  0  0  0  0  0  0  0  0  0  0  0
    2.1530    2.8974    0.0771 H   0  0  0  0  0  0  0  0  0  0  0  0
   -2.7080    8.0423   -1.7273 H   0  0  0  0  0  0  0  0  0  0  0  0
   -1.9310    8.5549   -0.2021 H   0  0  0  0  0  0  0  0  0  0  0  0
   -1.2212    9.0087   -1.7647 H   0  0  0  0  0  0  0  0  0  0  0  0
    4.9750    4.8519    8.9872 H   0  0  0  0  0  0  0  0  0  0  0  0
    3.2452    6.3280    5.3109 H   0  0  0  0  0  0  0  0  0  0  0  0
    4.9999    7.1434    9.8802 H   0  0  0  0  0  0  0  0  0  0  0  0
    3.2587    8.6124    6.2394 H   0  0  0  0  0  0  0  0  0  0  0  0
    4.1799    9.0352    8.5034 H   0  0  0  0  0  0  0  0  0  0  0  0
  1  4  1  0  0  0  0
  1 31  1  1  0  0  0
  1  3  1  0  0  0  0
  1  2  1  0  0  0  0
  2  5  1  0  0  0  0
  2  6  2  0  0  0  0
  3  7  1  0  0  0  0
  3 32  1  0  0  0  0
  4  8  1  0  0  0  0
  4 33  1  0  0  0  0
  4 34  1  0  0  0  0
  5  9  1  0  0  0  0
  5 35  1  0  0  0  0
  7 11  2  0  0  0  0
  8 12  1  0  0  0  0
  8 13  1  0  0  0  0
  8 36  1  0  0  0  0
  9 14  1  0  0  0  0
  9 15  1  0  0  0  0
  9 37  1  6  0  0  0
 10 17  1  0  0  0  0
 10 38  1  6  0  0  0
 10 16  1  0  0  0  0
 10  7  1  0  0  0  0
 12 39  1  0  0  0  0
 12 40  1  0  0  0  0
 12 41  1  0  0  0  0
 13 42  1  0  0  0  0
 13 43  1  0  0  0  0
 13 44  1  0  0  0  0
 14 25  1  0  0  0  0
 14 45  1  0  0  0  0
 14 46  1  0  0  0  0
 15 18  1  0  0  0  0
 15 19  2  0  0  0  0
 16 20  1  0  0  0  0
 16 47  1  0  0  0  0
 16 48  1  0  0  0  0
 17 21  1  0  0  0  0
 17 49  1  0  0  0  0
 18 50  1  0  0  0  0
 20 22  1  0  0  0  0
 20 51  1  0  0  0  0
 20 52  1  0  0  0  0
 21 23  2  0  0  0  0
 21 53  1  0  0  0  0
 22 24  1  0  0  0  0
 24 54  1  0  0  0  0
 24 55  1  0  0  0  0
 24 56  1  0  0  0  0
 25 26  2  0  0  0  0
 25 27  1  0  0  0  0
 26 28  1  0  0  0  0
 26 57  1  0  0  0  0
 27 29  2  0  0  0  0
 27 58  1  0  0  0  0
 28 30  2  0  0  0  0
 28 59  1  0  0  0  0
 29 30  1  0  0  0  0
 29 60  1  0  0  0  0
 30 61  1  0  0  0  0
M  END
>  <Mol_ID>
7509

>  <Formula>
C21H31N3O5S

>  <MolWeight>
437.55294

>  <Cat>
E1313

>  <Name>
N-Formyl-Met-Leu-Phe (fMLP)

>  <Target>
FPR

>  <Form>
free base

>  <CAS>
59880-97-6

>  <URL>
https://www.selleckchem.com/products/n-formyl-met-leu-phe-fmlp.html

$$$$
