N-Nitrosodiethylamine
 OpenBabel08302521313D

 17 16  0  0  0  0  0  0  0  0999 V2000
    2.3721    0.6257    0.7501 O   0  0  0  0  0  0  0  0  0  0  0  0
    2.8684   -0.4633   -0.9789 N   0  0  0  0  0  0  0  0  0  0  0  0
    2.2579   -0.4697    0.1888 N   0  0  0  0  0  0  0  0  0  0  0  0
    2.2810   -1.4402   -1.9094 C   0  0  0  0  0  0  0  0  0  0  0  0
    4.3345   -0.6285   -0.8809 C   0  0  0  0  0  0  0  0  0  0  0  0
    2.4857   -0.9995   -3.3576 C   0  0  0  0  0  0  0  0  0  0  0  0
    5.0385    0.7231   -0.8251 C   0  0  0  0  0  0  0  0  0  0  0  0
    2.6847   -2.4493   -1.7512 H   0  0  0  0  0  0  0  0  0  0  0  0
    1.1943   -1.5112   -1.7572 H   0  0  0  0  0  0  0  0  0  0  0  0
    4.6179   -1.2381   -0.0118 H   0  0  0  0  0  0  0  0  0  0  0  0
    4.7362   -1.1587   -1.7531 H   0  0  0  0  0  0  0  0  0  0  0  0
    3.5400   -1.0175   -3.6490 H   0  0  0  0  0  0  0  0  0  0  0  0
    1.9419   -1.6686   -4.0330 H   0  0  0  0  0  0  0  0  0  0  0  0
    2.1042    0.0146   -3.5156 H   0  0  0  0  0  0  0  0  0  0  0  0
    4.7716    1.2896    0.0727 H   0  0  0  0  0  0  0  0  0  0  0  0
    6.1242    0.5795   -0.8148 H   0  0  0  0  0  0  0  0  0  0  0  0
    4.7897    1.3285   -1.7029 H   0  0  0  0  0  0  0  0  0  0  0  0
  1  3  2  0  0  0  0
  2  3  1  0  0  0  0
  2  4  1  0  0  0  0
  2  5  1  0  0  0  0
  4  6  1  0  0  0  0
  4  8  1  0  0  0  0
  4  9  1  0  0  0  0
  5  7  1  0  0  0  0
  5 10  1  0  0  0  0
  5 11  1  0  0  0  0
  6 12  1  0  0  0  0
  6 13  1  0  0  0  0
  6 14  1  0  0  0  0
  7 15  1  0  0  0  0
  7 16  1  0  0  0  0
  7 17  1  0  0  0  0
M  END
>  <Mol_ID>
6080

>  <Formula>
C4H10N2O

>  <MolWeight>
102.135

>  <Cat>
E0136

>  <Name>
N-Nitrosodiethylamine

>  <Synonyms>
N-Nitroso-diethylamine, NDEA, diethylnitrosamine, DEN

>  <Target>
Others

>  <Form>
Free Base

>  <CAS>
55-18-5

>  <URL>
http://www.selleckchem.com/products/n-nitrosodiethylamine.html

$$$$
