N-p-Tosyl-L-phenylalanine chloromethyl ketone
 OpenBabel08302521383D

 41 42  0  0  1  0  0  0  0  0999 V2000
    1.0275   -0.0086   -0.0140 C   0  0  1  0  0  0  0  0  0  0  0  0
    0.4203    1.1591    0.6643 N   0  0  0  0  0  0  0  0  0  0  0  0
    0.4781   -1.3464    0.5209 C   0  0  0  0  0  0  0  0  0  0  0  0
    0.9315    0.0562   -1.5436 C   0  0  0  0  0  0  0  0  0  0  0  0
   -1.1689    1.6032    0.3696 S   0  0  0  0  0  0  0  0  0  0  0  0
    1.3971    1.3189   -2.2295 C   0  0  0  0  0  0  0  0  0  0  0  0
    0.6105   -0.9227   -2.2230 O   0  0  0  0  0  0  0  0  0  0  0  0
   -1.1823    3.0411    0.5507 O   0  0  0  0  0  0  0  0  0  0  0  0
   -1.5934    1.0069   -0.8698 O   0  0  0  0  0  0  0  0  0  0  0  0
   -4.9245    0.0516    4.8121 C   0  0  0  0  0  0  0  0  0  0  0  0
    0.5689   -1.5889    2.0149 C   0  0  0  0  0  0  0  0  0  0  0  0
   -0.4730   -2.2918    2.6435 C   0  0  0  0  0  0  0  0  0  0  0  0
    1.6596   -1.1836    2.7972 C   0  0  0  0  0  0  0  0  0  0  0  0
   -0.4803   -2.4864    4.0250 C   0  0  0  0  0  0  0  0  0  0  0  0
    1.6573   -1.3883    4.1807 C   0  0  0  0  0  0  0  0  0  0  0  0
    0.5762   -2.0154    4.7977 C   0  0  0  0  0  0  0  0  0  0  0  0
   -2.1054    0.9158    1.7033 C   0  0  0  0  0  0  0  0  0  0  0  0
   -1.8142    1.2988    3.0149 C   0  0  0  0  0  0  0  0  0  0  0  0
   -3.2336    0.1435    1.4189 C   0  0  0  0  0  0  0  0  0  0  0  0
   -2.7012    0.9646    4.0395 C   0  0  0  0  0  0  0  0  0  0  0  0
   -4.1181   -0.1818    2.4470 C   0  0  0  0  0  0  0  0  0  0  0  0
   -3.8774    0.2571    3.7563 C   0  0  0  0  0  0  0  0  0  0  0  0
    2.1053    0.0339    0.1965 H   0  0  0  0  0  0  0  0  0  0  0  0
    1.0079    1.9881    0.7623 H   0  0  0  0  0  0  0  0  0  0  0  0
    0.9972   -2.1780    0.0260 H   0  0  0  0  0  0  0  0  0  0  0  0
   -0.5751   -1.4288    0.2193 H   0  0  0  0  0  0  0  0  0  0  0  0
    2.3996    1.1597   -2.6299 H   0  0  0  0  0  0  0  0  0  0  0  0
    0.7040    1.5650   -3.0409 H   0  0  0  0  0  0  0  0  0  0  0  0
    1.4228    2.1677   -1.5419 H   0  0  0  0  0  0  0  0  0  0  0  0
   -5.8024    0.6643    4.5779 H   0  0  0  0  0  0  0  0  0  0  0  0
   -5.2250   -0.9992    4.8622 H   0  0  0  0  0  0  0  0  0  0  0  0
   -4.5637    0.3496    5.8018 H   0  0  0  0  0  0  0  0  0  0  0  0
   -1.3041   -2.6794    2.0571 H   0  0  0  0  0  0  0  0  0  0  0  0
    2.5230   -0.6988    2.3508 H   0  0  0  0  0  0  0  0  0  0  0  0
   -1.3159   -2.9974    4.4947 H   0  0  0  0  0  0  0  0  0  0  0  0
    2.4997   -1.0553    4.7829 H   0  0  0  0  0  0  0  0  0  0  0  0
    0.5610   -2.1467    5.8765 H   0  0  0  0  0  0  0  0  0  0  0  0
   -0.9322    1.8938    3.2371 H   0  0  0  0  0  0  0  0  0  0  0  0
   -3.4631   -0.1553    0.3987 H   0  0  0  0  0  0  0  0  0  0  0  0
   -2.4915    1.3005    5.0525 H   0  0  0  0  0  0  0  0  0  0  0  0
   -5.0254   -0.7347    2.2129 H   0  0  0  0  0  0  0  0  0  0  0  0
  1  4  1  0  0  0  0
  1 23  1  1  0  0  0
  1  3  1  0  0  0  0
  1  2  1  0  0  0  0
  2  5  1  0  0  0  0
  2 24  1  0  0  0  0
  3 11  1  0  0  0  0
  3 25  1  0  0  0  0
  3 26  1  0  0  0  0
  4  6  1  0  0  0  0
  4  7  2  0  0  0  0
  5  8  2  0  0  0  0
  5  9  2  0  0  0  0
  5 17  1  0  0  0  0
  6 27  1  0  0  0  0
  6 28  1  0  0  0  0
  6 29  1  0  0  0  0
 10 22  1  0  0  0  0
 10 30  1  0  0  0  0
 10 31  1  0  0  0  0
 10 32  1  0  0  0  0
 11 12  2  0  0  0  0
 11 13  1  0  0  0  0
 12 14  1  0  0  0  0
 12 33  1  0  0  0  0
 13 15  2  0  0  0  0
 13 34  1  0  0  0  0
 14 16  2  0  0  0  0
 14 35  1  0  0  0  0
 15 16  1  0  0  0  0
 15 36  1  0  0  0  0
 16 37  1  0  0  0  0
 17 18  2  0  0  0  0
 17 19  1  0  0  0  0
 18 20  1  0  0  0  0
 18 38  1  0  0  0  0
 19 21  2  0  0  0  0
 19 39  1  0  0  0  0
 20 22  2  0  0  0  0
 20 40  1  0  0  0  0
 21 22  1  0  0  0  0
 21 41  1  0  0  0  0
M  END
>  <Mol_ID>
7655

>  <Formula>
C17H18ClNO3S

>  <MolWeight>
351.84772

>  <Cat>
E4030

>  <Name>
N-p-Tosyl-L-phenylalanine chloromethyl ketone

>  <Synonyms>
Tosyl phenylalanyl chloromethyl ketone, TPCK

>  <Target>
Others

>  <Form>
chloride

>  <CAS>
402-71-1

>  <URL>
https://www.selleckchem.com/products/n-p-tosyl-l-phenylalanine-chloromethyl-ketone.html

$$$$
