N-piperidine Ibrutinib hydrochloride
 OpenBabel08302521343D

 51 55  0  0  0  0  0  0  0  0999 V2000
    0.8331   -0.2724   -0.4210 N   0  0  0  0  0  0  0  0  0  0  0  0
   -0.2200    0.3142    5.8204 O   0  0  0  0  0  0  0  0  0  0  0  0
   -1.4293    1.9443    0.5451 C   0  0  0  0  0  0  0  0  0  0  0  0
   -0.8123    1.5632   -0.6893 C   0  0  0  0  0  0  0  0  0  0  0  0
   -2.3803    2.8723    0.3565 N   0  0  0  0  0  0  0  0  0  0  0  0
   -1.3918    2.3939   -1.6327 C   0  0  0  0  0  0  0  0  0  0  0  0
    0.1722    0.6782   -1.1642 C   0  0  0  0  0  0  0  0  0  0  0  0
   -2.3222    3.1533   -0.9617 N   0  0  0  0  0  0  0  0  0  0  0  0
   -1.0988    2.4573   -2.9430 N   0  0  0  0  0  0  0  0  0  0  0  0
    0.5322    0.7476   -2.4649 N   0  0  0  0  0  0  0  0  0  0  0  0
   -0.1188    1.6036   -3.2703 C   0  0  0  0  0  0  0  0  0  0  0  0
   -1.1189    1.5010    1.9069 C   0  0  0  0  0  0  0  0  0  0  0  0
    0.1962    1.1857    2.2558 C   0  0  0  0  0  0  0  0  0  0  0  0
   -2.1126    1.4134    2.8932 C   0  0  0  0  0  0  0  0  0  0  0  0
    0.4987    0.6763    3.5132 C   0  0  0  0  0  0  0  0  0  0  0  0
   -1.7881    1.0090    4.1944 C   0  0  0  0  0  0  0  0  0  0  0  0
   -0.4744    0.6611    4.5115 C   0  0  0  0  0  0  0  0  0  0  0  0
   -3.1375    4.2231   -1.5388 C   0  0  0  0  0  0  0  0  0  0  0  0
   -2.7896    5.5989   -0.9523 C   0  0  0  0  0  0  0  0  0  0  0  0
   -4.6430    3.9360   -1.4705 C   0  0  0  0  0  0  0  0  0  0  0  0
   -3.5033    5.8842    0.3670 C   0  0  0  0  0  0  0  0  0  0  0  0
   -5.2575    4.3054   -0.1233 C   0  0  0  0  0  0  0  0  0  0  0  0
   -4.9474    5.6883    0.2399 N   0  0  0  0  0  0  0  0  0  0  0  0
    1.0310    0.5592    6.3493 C   0  0  0  0  0  0  0  0  0  0  0  0
    1.8396    1.6453    5.9912 C   0  0  0  0  0  0  0  0  0  0  0  0
    1.4777   -0.3383    7.3191 C   0  0  0  0  0  0  0  0  0  0  0  0
    3.1312    1.7599    6.5035 C   0  0  0  0  0  0  0  0  0  0  0  0
    2.7544   -0.1964    7.8665 C   0  0  0  0  0  0  0  0  0  0  0  0
    3.5894    0.8367    7.4396 C   0  0  0  0  0  0  0  0  0  0  0  0
    0.6065   -0.4653    0.5391 H   0  0  0  0  0  0  0  0  0  0  0  0
    1.7183   -0.5791   -0.8024 H   0  0  0  0  0  0  0  0  0  0  0  0
    0.1861    1.5935   -4.3123 H   0  0  0  0  0  0  0  0  0  0  0  0
    1.0147    1.3434    1.5585 H   0  0  0  0  0  0  0  0  0  0  0  0
   -3.1409    1.6840    2.6593 H   0  0  0  0  0  0  0  0  0  0  0  0
    1.5166    0.3522    3.7111 H   0  0  0  0  0  0  0  0  0  0  0  0
   -2.5598    0.9781    4.9593 H   0  0  0  0  0  0  0  0  0  0  0  0
   -2.8629    4.2485   -2.6017 H   0  0  0  0  0  0  0  0  0  0  0  0
   -1.7060    5.7032   -0.8149 H   0  0  0  0  0  0  0  0  0  0  0  0
   -3.0865    6.3694   -1.6770 H   0  0  0  0  0  0  0  0  0  0  0  0
   -5.1401    4.5334   -2.2475 H   0  0  0  0  0  0  0  0  0  0  0  0
   -4.8515    2.8861   -1.6999 H   0  0  0  0  0  0  0  0  0  0  0  0
   -3.1020    5.2721    1.1823 H   0  0  0  0  0  0  0  0  0  0  0  0
   -3.3185    6.9277    0.6466 H   0  0  0  0  0  0  0  0  0  0  0  0
   -6.3460    4.2035   -0.1962 H   0  0  0  0  0  0  0  0  0  0  0  0
   -4.9344    3.6170    0.6656 H   0  0  0  0  0  0  0  0  0  0  0  0
   -5.3849    5.8962    1.1388 H   0  0  0  0  0  0  0  0  0  0  0  0
    1.4917    2.3934    5.2840 H   0  0  0  0  0  0  0  0  0  0  0  0
    0.8369   -1.1544    7.6415 H   0  0  0  0  0  0  0  0  0  0  0  0
    3.7760    2.5679    6.1680 H   0  0  0  0  0  0  0  0  0  0  0  0
    3.1021   -0.8973    8.6211 H   0  0  0  0  0  0  0  0  0  0  0  0
    4.5936    0.9295    7.8445 H   0  0  0  0  0  0  0  0  0  0  0  0
  1  7  1  0  0  0  0
  1 30  1  0  0  0  0
  1 31  1  0  0  0  0
  2 17  1  0  0  0  0
  2 24  1  0  0  0  0
  3  4  1  0  0  0  0
  3  5  2  0  0  0  0
  3 12  1  0  0  0  0
  4  6  2  0  0  0  0
  4  7  1  0  0  0  0
  5  8  1  0  0  0  0
  6  8  1  0  0  0  0
  6  9  1  0  0  0  0
  7 10  2  0  0  0  0
  8 18  1  0  0  0  0
  9 11  2  0  0  0  0
 10 11  1  0  0  0  0
 11 32  1  0  0  0  0
 12 13  2  0  0  0  0
 12 14  1  0  0  0  0
 13 15  1  0  0  0  0
 13 33  1  0  0  0  0
 14 16  2  0  0  0  0
 14 34  1  0  0  0  0
 15 17  2  0  0  0  0
 15 35  1  0  0  0  0
 16 17  1  0  0  0  0
 16 36  1  0  0  0  0
 18 19  1  0  0  0  0
 18 20  1  0  0  0  0
 18 37  1  0  0  0  0
 19 21  1  0  0  0  0
 19 38  1  0  0  0  0
 19 39  1  0  0  0  0
 20 22  1  0  0  0  0
 20 40  1  0  0  0  0
 20 41  1  0  0  0  0
 21 23  1  0  0  0  0
 21 42  1  0  0  0  0
 21 43  1  0  0  0  0
 22 23  1  0  0  0  0
 22 44  1  0  0  0  0
 22 45  1  0  0  0  0
 23 46  1  0  0  0  0
 24 25  2  0  0  0  0
 24 26  1  0  0  0  0
 25 27  1  0  0  0  0
 25 47  1  0  0  0  0
 26 28  2  0  0  0  0
 26 48  1  0  0  0  0
 27 29  2  0  0  0  0
 27 49  1  0  0  0  0
 28 29  1  0  0  0  0
 28 50  1  0  0  0  0
 29 51  1  0  0  0  0
M  END
>  <Mol_ID>
6432

>  <Formula>
C22H23ClN6O

>  <MolWeight>
422.91062

>  <Cat>
E2201

>  <Name>
N-piperidine Ibrutinib hydrochloride

>  <Target>
BTK

>  <Form>
hydrochloride

>  <CAS>
2231747-18-3

>  <URL>
http://www.selleckchem.com/products/n-piperidine-ibrutinib-hydrochloride.html

$$$$
