N-Vanillyldecanamide
 OpenBabel08302521323D

 51 51  0  0  0  0  0  0  0  0999 V2000
    1.1728   -0.0925   -0.1495 C   0  0  0  0  0  0  0  0  0  0  0  0
    0.2606   -1.2925   -0.3664 C   0  0  0  0  0  0  0  0  0  0  0  0
   -0.5764   -1.6031    0.8829 C   0  0  0  0  0  0  0  0  0  0  0  0
   -1.5386   -0.4665    1.2456 C   0  0  0  0  0  0  0  0  0  0  0  0
   -2.3680   -0.7853    2.4972 C   0  0  0  0  0  0  0  0  0  0  0  0
   -3.3191    0.3645    2.8517 C   0  0  0  0  0  0  0  0  0  0  0  0
   -4.1499    0.0626    4.1037 C   0  0  0  0  0  0  0  0  0  0  0  0
   -5.0924    1.2204    4.4534 C   0  0  0  0  0  0  0  0  0  0  0  0
   -5.9319    0.9190    5.6983 C   0  0  0  0  0  0  0  0  0  0  0  0
   -6.8684    2.0704    6.0373 C   0  0  0  0  0  0  0  0  0  0  0  0
    1.9297   -0.0229    0.8097 O   0  0  0  0  0  0  0  0  0  0  0  0
    1.0683    0.8983   -1.1039 N   0  0  0  0  0  0  0  0  0  0  0  0
    1.8559    2.1195   -1.0477 C   0  0  0  0  0  0  0  0  0  0  0  0
    0.9982    3.3576   -0.9229 C   0  0  0  0  0  0  0  0  0  0  0  0
    0.2328    3.5576    0.2414 C   0  0  0  0  0  0  0  0  0  0  0  0
   -0.5699    4.6938    0.3884 C   0  0  0  0  0  0  0  0  0  0  0  0
   -0.5976    5.6394   -0.6400 C   0  0  0  0  0  0  0  0  0  0  0  0
    0.1707    5.4823   -1.7855 C   0  0  0  0  0  0  0  0  0  0  0  0
    0.9718    4.3425   -1.9254 C   0  0  0  0  0  0  0  0  0  0  0  0
   -1.3627    4.9881    1.4696 O   0  0  0  0  0  0  0  0  0  0  0  0
   -1.3539    4.0353    2.5261 C   0  0  0  0  0  0  0  0  0  0  0  0
   -1.3928    6.7479   -0.5352 O   0  0  0  0  0  0  0  0  0  0  0  0
   -0.3910   -1.1434   -1.2326 H   0  0  0  0  0  0  0  0  0  0  0  0
    0.9034   -2.1510   -0.5927 H   0  0  0  0  0  0  0  0  0  0  0  0
   -1.1507   -2.5219    0.7013 H   0  0  0  0  0  0  0  0  0  0  0  0
    0.0865   -1.8086    1.7311 H   0  0  0  0  0  0  0  0  0  0  0  0
   -0.9702    0.4556    1.4240 H   0  0  0  0  0  0  0  0  0  0  0  0
   -2.2085   -0.2735    0.4000 H   0  0  0  0  0  0  0  0  0  0  0  0
   -2.9457   -1.7016    2.3305 H   0  0  0  0  0  0  0  0  0  0  0  0
   -1.6950   -0.9745    3.3418 H   0  0  0  0  0  0  0  0  0  0  0  0
   -2.7366    1.2752    3.0223 H   0  0  0  0  0  0  0  0  0  0  0  0
   -3.9879    0.5619    2.0044 H   0  0  0  0  0  0  0  0  0  0  0  0
   -4.7350   -0.8509    3.9412 H   0  0  0  0  0  0  0  0  0  0  0  0
   -3.4784   -0.1280    4.9493 H   0  0  0  0  0  0  0  0  0  0  0  0
   -4.5072    2.1329    4.6214 H   0  0  0  0  0  0  0  0  0  0  0  0
   -5.7605    1.4178    3.6058 H   0  0  0  0  0  0  0  0  0  0  0  0
   -6.5271    0.0128    5.5349 H   0  0  0  0  0  0  0  0  0  0  0  0
   -5.2764    0.7259    6.5556 H   0  0  0  0  0  0  0  0  0  0  0  0
   -7.5520    2.2778    5.2076 H   0  0  0  0  0  0  0  0  0  0  0  0
   -7.4710    1.8254    6.9179 H   0  0  0  0  0  0  0  0  0  0  0  0
   -6.3068    2.9844    6.2560 H   0  0  0  0  0  0  0  0  0  0  0  0
    0.5577    0.7102   -1.9561 H   0  0  0  0  0  0  0  0  0  0  0  0
    2.5660    2.0885   -0.2130 H   0  0  0  0  0  0  0  0  0  0  0  0
    2.4452    2.1501   -1.9742 H   0  0  0  0  0  0  0  0  0  0  0  0
    0.2922    2.8045    1.0212 H   0  0  0  0  0  0  0  0  0  0  0  0
    0.1418    6.2409   -2.5630 H   0  0  0  0  0  0  0  0  0  0  0  0
    1.5760    4.2405   -2.8248 H   0  0  0  0  0  0  0  0  0  0  0  0
   -1.7324    3.0714    2.1768 H   0  0  0  0  0  0  0  0  0  0  0  0
   -0.3541    3.9340    2.9606 H   0  0  0  0  0  0  0  0  0  0  0  0
   -2.0253    4.3949    3.3111 H   0  0  0  0  0  0  0  0  0  0  0  0
   -1.8490    6.6494    0.3231 H   0  0  0  0  0  0  0  0  0  0  0  0
  1  2  1  0  0  0  0
  1 11  2  0  0  0  0
  1 12  1  0  0  0  0
  2  3  1  0  0  0  0
  2 23  1  0  0  0  0
  2 24  1  0  0  0  0
  3  4  1  0  0  0  0
  3 25  1  0  0  0  0
  3 26  1  0  0  0  0
  4  5  1  0  0  0  0
  4 27  1  0  0  0  0
  4 28  1  0  0  0  0
  5  6  1  0  0  0  0
  5 29  1  0  0  0  0
  5 30  1  0  0  0  0
  6  7  1  0  0  0  0
  6 31  1  0  0  0  0
  6 32  1  0  0  0  0
  7  8  1  0  0  0  0
  7 33  1  0  0  0  0
  7 34  1  0  0  0  0
  8  9  1  0  0  0  0
  8 35  1  0  0  0  0
  8 36  1  0  0  0  0
  9 10  1  0  0  0  0
  9 37  1  0  0  0  0
  9 38  1  0  0  0  0
 10 39  1  0  0  0  0
 10 40  1  0  0  0  0
 10 41  1  0  0  0  0
 12 13  1  0  0  0  0
 12 42  1  0  0  0  0
 13 14  1  0  0  0  0
 13 43  1  0  0  0  0
 13 44  1  0  0  0  0
 14 15  2  0  0  0  0
 14 19  1  0  0  0  0
 15 16  1  0  0  0  0
 15 45  1  0  0  0  0
 16 17  2  0  0  0  0
 16 20  1  0  0  0  0
 17 18  1  0  0  0  0
 17 22  1  0  0  0  0
 18 19  2  0  0  0  0
 18 46  1  0  0  0  0
 19 47  1  0  0  0  0
 20 21  1  0  0  0  0
 21 48  1  0  0  0  0
 21 49  1  0  0  0  0
 21 50  1  0  0  0  0
 22 51  1  0  0  0  0
M  END
>  <Mol_ID>
6240

>  <Formula>
C18H29NO3

>  <MolWeight>
307.42776

>  <Cat>
S6975

>  <Name>
N-Vanillyldecanamide

>  <Synonyms>
N/A

>  <Target>
Others

>  <Form>
free base

>  <CAS>
31078-36-1

>  <URL>
http://www.selleckchem.com/products/n-vanillyldecanamide.html

$$$$
