N4-Benzoyl-2¡ä-deoxycytidine
 OpenBabel08302521373D

 41 43  0  0  1  0  0  0  0  0999 V2000
    1.0082   -0.1508   -0.1380 O   0  0  0  0  0  0  0  0  0  0  0  0
    3.5655    5.3035    0.6747 C   0  0  0  0  0  0  0  0  0  0  0  0
    4.5243    5.7072   -0.3033 O   0  0  0  0  0  0  0  0  0  0  0  0
   -0.0433    4.4536    0.5858 O   0  0  0  0  0  0  0  0  0  0  0  0
    4.9927   -2.2384    0.0856 N   0  0  0  0  0  0  0  0  0  0  0  0
    6.3516   -2.4916    0.2619 C   0  0  0  0  0  0  0  0  0  0  0  0
    7.2571   -1.6840    0.0922 O   0  0  0  0  0  0  0  0  0  0  0  0
    2.0183    2.3636   -0.1643 C   0  0  2  0  0  0  0  0  0  0  0  0
    2.6980    3.5109   -0.7140 O   0  0  0  0  0  0  0  0  0  0  0  0
    1.5475    2.7666    1.2301 C   0  0  0  0  0  0  0  0  0  0  0  0
    2.3157    4.6870    0.0342 C   0  0  1  0  0  0  0  0  0  0  0  0
    1.2849    4.2461    1.0696 C   0  0  1  0  0  0  0  0  0  0  0  0
    2.8707    1.1852   -0.1766 N   0  0  0  0  0  0  0  0  0  0  0  0
    2.2366   -0.0641   -0.1282 C   0  0  0  0  0  0  0  0  0  0  0  0
    4.2458    1.2860   -0.2058 C   0  0  0  0  0  0  0  0  0  0  0  0
    3.0156   -1.1935   -0.0468 N   0  0  0  0  0  0  0  0  0  0  0  0
    5.0219    0.2026   -0.1926 C   0  0  0  0  0  0  0  0  0  0  0  0
    4.2970   -1.0659   -0.0663 C   0  0  0  0  0  0  0  0  0  0  0  0
    6.6757   -3.8677    0.7366 C   0  0  0  0  0  0  0  0  0  0  0  0
    5.9092   -4.9809    0.3679 C   0  0  0  0  0  0  0  0  0  0  0  0
    7.7464   -4.0272    1.6256 C   0  0  0  0  0  0  0  0  0  0  0  0
    6.1643   -6.2246    0.9486 C   0  0  0  0  0  0  0  0  0  0  0  0
    7.9994   -5.2743    2.2002 C   0  0  0  0  0  0  0  0  0  0  0  0
    7.1946   -6.3662    1.8776 C   0  0  0  0  0  0  0  0  0  0  0  0
    3.2947    6.1946    1.2498 H   0  0  0  0  0  0  0  0  0  0  0  0
    4.0635    4.5943    1.3428 H   0  0  0  0  0  0  0  0  0  0  0  0
    4.1420    5.5622   -1.1871 H   0  0  0  0  0  0  0  0  0  0  0  0
   -0.1106    4.1365   -0.3322 H   0  0  0  0  0  0  0  0  0  0  0  0
    4.3503   -2.9971    0.2702 H   0  0  0  0  0  0  0  0  0  0  0  0
    1.1501    2.1816   -0.8098 H   0  0  0  0  0  0  0  0  0  0  0  0
    2.3436    2.6080    1.9666 H   0  0  0  0  0  0  0  0  0  0  0  0
    0.6680    2.1953    1.5453 H   0  0  0  0  0  0  0  0  0  0  0  0
    1.8928    5.3907   -0.6911 H   0  0  0  0  0  0  0  0  0  0  0  0
    1.3634    4.7907    2.0151 H   0  0  0  0  0  0  0  0  0  0  0  0
    4.6812    2.2771   -0.2630 H   0  0  0  0  0  0  0  0  0  0  0  0
    6.0971    0.2602   -0.2556 H   0  0  0  0  0  0  0  0  0  0  0  0
    5.1165   -4.9040   -0.3711 H   0  0  0  0  0  0  0  0  0  0  0  0
    8.3707   -3.1767    1.8927 H   0  0  0  0  0  0  0  0  0  0  0  0
    5.5522   -7.0833    0.6841 H   0  0  0  0  0  0  0  0  0  0  0  0
    8.8151   -5.3911    2.9094 H   0  0  0  0  0  0  0  0  0  0  0  0
    7.3740   -7.3310    2.3465 H   0  0  0  0  0  0  0  0  0  0  0  0
  1 14  2  0  0  0  0
  2  3  1  0  0  0  0
  2 25  1  0  0  0  0
  2 26  1  0  0  0  0
  3 27  1  0  0  0  0
  4 28  1  0  0  0  0
  5  6  1  0  0  0  0
  5 18  1  0  0  0  0
  5 29  1  0  0  0  0
  6  7  2  0  0  0  0
  6 19  1  0  0  0  0
  8  9  1  0  0  0  0
  8 10  1  0  0  0  0
  8 13  1  0  0  0  0
  8 30  1  6  0  0  0
  9 11  1  0  0  0  0
 10 12  1  0  0  0  0
 10 31  1  0  0  0  0
 10 32  1  0  0  0  0
 11 12  1  0  0  0  0
 11 33  1  6  0  0  0
 11  2  1  0  0  0  0
 12  4  1  0  0  0  0
 12 34  1  1  0  0  0
 13 14  1  0  0  0  0
 13 15  1  0  0  0  0
 14 16  1  0  0  0  0
 15 17  2  0  0  0  0
 15 35  1  0  0  0  0
 16 18  2  0  0  0  0
 17 18  1  0  0  0  0
 17 36  1  0  0  0  0
 19 20  2  0  0  0  0
 19 21  1  0  0  0  0
 20 22  1  0  0  0  0
 20 37  1  0  0  0  0
 21 23  2  0  0  0  0
 21 38  1  0  0  0  0
 22 24  2  0  0  0  0
 22 39  1  0  0  0  0
 23 24  1  0  0  0  0
 23 40  1  0  0  0  0
 24 41  1  0  0  0  0
M  END
>  <Mol_ID>
7351

>  <Formula>
C16H17N3O5

>  <MolWeight>
331.32328

>  <Cat>
E4398

>  <Name>
N4-Benzoyl-2¡ä-deoxycytidine

>  <Synonyms>
N4-Benzoyl-2¡ä-deoxycytidine

>  <Target>
Others

>  <Form>
free base

>  <CAS>
4836-13-9

>  <URL>
https://www.selleckchem.com/products/n4-benzoyl-2-deoxycytidine.html

$$$$
