Nadifloxacin.cdx
 OpenBabel08302521343D

 47 50  0  0  0  0  0  0  0  0999 V2000
   -1.3818   -0.0400   -0.0291 C   0  0  0  0  0  0  0  0  0  0  0  0
   -2.1975    1.1932   -0.0770 C   0  0  0  0  0  0  0  0  0  0  0  0
   -1.4941    2.4947   -0.1100 C   0  0  0  0  0  0  0  0  0  0  0  0
   -0.1552    2.4399   -0.1089 C   0  0  0  0  0  0  0  0  0  0  0  0
    0.6456    1.3070   -0.0693 N   0  0  0  0  0  0  0  0  0  0  0  0
    2.1046    1.4485    0.0865 C   0  0  3  0  0  0  0  0  0  0  0  0
    2.8851    0.2397   -0.3848 C   0  0  0  0  0  0  0  0  0  0  0  0
    2.2721   -1.0882   -0.0029 C   0  0  0  0  0  0  0  0  0  0  0  0
    0.7695   -1.1774    0.0220 C   0  0  0  0  0  0  0  0  0  0  0  0
    0.0304    0.0350   -0.0124 C   0  0  0  0  0  0  0  0  0  0  0  0
   -2.0409   -1.2669   -0.0050 C   0  0  0  0  0  0  0  0  0  0  0  0
   -1.3040   -2.4426    0.0387 C   0  0  0  0  0  0  0  0  0  0  0  0
    0.1112   -2.4581    0.0476 C   0  0  0  0  0  0  0  0  0  0  0  0
   -2.1920    3.7911   -0.1219 C   0  0  0  0  0  0  0  0  0  0  0  0
   -3.3950    3.9731   -0.1488 O   0  0  0  0  0  0  0  0  0  0  0  0
   -1.3735    4.8596   -0.0941 O   0  0  0  0  0  0  0  0  0  0  0  0
   -3.4191    1.1138   -0.0748 O   0  0  0  0  0  0  0  0  0  0  0  0
    2.4562    1.8685    1.5158 C   0  0  0  0  0  0  0  0  0  0  0  0
    0.8067   -3.6691    0.0094 N   0  0  0  0  0  0  0  0  0  0  0  0
    0.2535   -4.8558   -0.6614 C   0  0  0  0  0  0  0  0  0  0  0  0
    1.3323   -5.4277   -1.5850 C   0  0  0  0  0  0  0  0  0  0  0  0
    2.6773   -5.6393   -0.8826 C   0  0  3  0  0  0  0  0  0  0  0  0
    3.0956   -4.4587   -0.0043 C   0  0  0  0  0  0  0  0  0  0  0  0
    1.9383   -3.9873    0.8801 C   0  0  0  0  0  0  0  0  0  0  0  0
    2.6561   -6.8373   -0.1079 O   0  0  0  0  0  0  0  0  0  0  0  0
   -2.0032   -3.5884    0.0990 F   0  0  0  0  0  0  0  0  0  0  0  0
    0.4283    3.3569   -0.1361 H   0  0  0  0  0  0  0  0  0  0  0  0
    2.4330    2.2728   -0.5621 H   0  0  0  0  0  0  0  0  0  0  0  0
    2.9865    0.2807   -1.4756 H   0  0  0  0  0  0  0  0  0  0  0  0
    3.9125    0.2716    0.0060 H   0  0  0  0  0  0  0  0  0  0  0  0
    2.6429   -1.8005   -0.7416 H   0  0  0  0  0  0  0  0  0  0  0  0
    2.6567   -1.3436    0.9863 H   0  0  0  0  0  0  0  0  0  0  0  0
   -3.1265   -1.3238   -0.0213 H   0  0  0  0  0  0  0  0  0  0  0  0
   -1.9959    5.6092   -0.1010 H   0  0  0  0  0  0  0  0  0  0  0  0
    3.5395    1.9830    1.6322 H   0  0  0  0  0  0  0  0  0  0  0  0
    2.0072    2.8413    1.7505 H   0  0  0  0  0  0  0  0  0  0  0  0
    2.0978    1.1494    2.2574 H   0  0  0  0  0  0  0  0  0  0  0  0
   -0.6223   -4.6383   -1.2803 H   0  0  0  0  0  0  0  0  0  0  0  0
   -0.0467   -5.6025    0.0857 H   0  0  0  0  0  0  0  0  0  0  0  0
    1.4757   -4.7218   -2.4132 H   0  0  0  0  0  0  0  0  0  0  0  0
    0.9749   -6.3717   -2.0121 H   0  0  0  0  0  0  0  0  0  0  0  0
    3.4452   -5.7940   -1.6496 H   0  0  0  0  0  0  0  0  0  0  0  0
    3.9508   -4.7271    0.6245 H   0  0  0  0  0  0  0  0  0  0  0  0
    3.4245   -3.6524   -0.6663 H   0  0  0  0  0  0  0  0  0  0  0  0
    2.2369   -3.1714    1.5374 H   0  0  0  0  0  0  0  0  0  0  0  0
    1.6519   -4.7921    1.5693 H   0  0  0  0  0  0  0  0  0  0  0  0
    2.0195   -6.7325    0.6175 H   0  0  0  0  0  0  0  0  0  0  0  0
  1  2  1  0  0  0  0
  1 10  2  0  0  0  0
  1 11  1  0  0  0  0
  2  3  1  0  0  0  0
  2 17  2  0  0  0  0
  3  4  2  0  0  0  0
  3 14  1  0  0  0  0
  4  5  1  0  0  0  0
  4 27  1  0  0  0  0
  5  6  1  0  0  0  0
  5 10  1  0  0  0  0
  6  7  1  0  0  0  0
  6 18  1  0  0  0  0
  6 28  1  0  0  0  0
  7  8  1  0  0  0  0
  7 29  1  0  0  0  0
  7 30  1  0  0  0  0
  8  9  1  0  0  0  0
  8 31  1  0  0  0  0
  8 32  1  0  0  0  0
  9 10  1  0  0  0  0
  9 13  2  0  0  0  0
 11 12  2  0  0  0  0
 11 33  1  0  0  0  0
 12 13  1  0  0  0  0
 12 26  1  0  0  0  0
 13 19  1  0  0  0  0
 14 15  2  0  0  0  0
 14 16  1  0  0  0  0
 16 34  1  0  0  0  0
 18 35  1  0  0  0  0
 18 36  1  0  0  0  0
 18 37  1  0  0  0  0
 19 20  1  0  0  0  0
 19 24  1  0  0  0  0
 20 21  1  0  0  0  0
 20 38  1  0  0  0  0
 20 39  1  0  0  0  0
 21 22  1  0  0  0  0
 21 40  1  0  0  0  0
 21 41  1  0  0  0  0
 22 23  1  0  0  0  0
 22 25  1  0  0  0  0
 22 42  1  0  0  0  0
 23 24  1  0  0  0  0
 23 43  1  0  0  0  0
 23 44  1  0  0  0  0
 24 45  1  0  0  0  0
 24 46  1  0  0  0  0
 25 47  1  0  0  0  0
M  END
>  <Mol_ID>
617

>  <Formula>
C19H21FN2O4

>  <MolWeight>
360.3794432

>  <Cat>
S3105

>  <Name>
Nadifloxacin

>  <Synonyms>
OPC-7251

>  <Target>
Antibiotics

>  <Form>
free base

>  <CAS>
124858-35-1

>  <URL>
http://selleckchem.com/products/nadifloxacin.html

$$$$
