Naltrexone hydrochloride.cdx
 OpenBabel08302522013D

 48 53  0  0  0  0  0  0  0  0999 V2000
    1.5517   -4.2533    1.2556 C   0  0  0  0  0  0  0  0  0  0  0  0
    2.7025   -3.4600    1.1851 C   0  0  0  0  0  0  0  0  0  0  0  0
    2.5809   -2.1370    0.8123 C   0  0  0  0  0  0  0  0  0  0  0  0
    1.3517   -1.6298    0.4531 C   0  0  0  0  0  0  0  0  0  0  0  0
    0.2238   -2.4266    0.3736 C   0  0  0  0  0  0  0  0  0  0  0  0
    0.3111   -3.7367    0.8468 C   0  0  0  0  0  0  0  0  0  0  0  0
    1.4651   -0.2051    0.0198 C   0  0  2  0  0  0  0  0  0  0  0  0
    0.5707    0.0374   -1.1997 C   0  0  2  0  0  0  0  0  0  0  0  0
   -0.8634   -0.4122   -0.7857 C   0  0  1  0  0  0  0  0  0  0  0  0
   -0.9643   -1.9173   -0.3878 C   0  0  0  0  0  0  0  0  0  0  0  0
    2.9910   -0.1920   -0.2080 C   0  0  2  0  0  0  0  0  0  0  0  0
    3.4553   -0.4348   -1.6533 C   0  0  0  0  0  0  0  0  0  0  0  0
    2.4879   -0.1843   -2.7838 C   0  0  0  0  0  0  0  0  0  0  0  0
    1.0968   -0.6955   -2.4407 C   0  0  0  0  0  0  0  0  0  0  0  0
    3.5877   -1.2218    0.6384 O   0  0  0  0  0  0  0  0  0  0  0  0
    4.6320   -0.7061   -1.9172 O   0  0  0  0  0  0  0  0  0  0  0  0
    3.9281   -4.0065    1.4084 O   0  0  0  0  0  0  0  0  0  0  0  0
    0.5144    1.4216   -1.6048 O   0  0  0  0  0  0  0  0  0  0  0  0
   -1.4024    0.3558    0.3415 N   0  0  0  0  0  0  0  0  0  0  0  0
   -0.4917    0.9245    1.3283 C   0  0  0  0  0  0  0  0  0  0  0  0
    1.0350    0.7313    1.1683 C   0  0  0  0  0  0  0  0  0  0  0  0
   -2.5713    1.1742    0.0230 C   0  0  0  0  0  0  0  0  0  0  0  0
   -3.7084    0.2872   -0.4369 C   0  0  0  0  0  0  0  0  0  0  0  0
   -4.2305   -0.8055    0.4692 C   0  0  0  0  0  0  0  0  0  0  0  0
   -5.0852    0.3899    0.1699 C   0  0  0  0  0  0  0  0  0  0  0  0
    1.6100   -5.2870    1.5844 H   0  0  0  0  0  0  0  0  0  0  0  0
   -0.5670   -4.3794    0.8534 H   0  0  0  0  0  0  0  0  0  0  0  0
   -1.5012   -0.2746   -1.6672 H   0  0  0  0  0  0  0  0  0  0  0  0
   -1.0344   -2.5056   -1.3114 H   0  0  0  0  0  0  0  0  0  0  0  0
   -1.8769   -2.1240    0.1810 H   0  0  0  0  0  0  0  0  0  0  0  0
    3.4198    0.7729    0.0895 H   0  0  0  0  0  0  0  0  0  0  0  0
    2.4873    0.8905   -3.0016 H   0  0  0  0  0  0  0  0  0  0  0  0
    2.8520   -0.7019   -3.6770 H   0  0  0  0  0  0  0  0  0  0  0  0
    0.4365   -0.5038   -3.2946 H   0  0  0  0  0  0  0  0  0  0  0  0
    1.1315   -1.7805   -2.2971 H   0  0  0  0  0  0  0  0  0  0  0  0
    3.8869   -4.9398    1.1414 H   0  0  0  0  0  0  0  0  0  0  0  0
    0.9489    1.9971   -0.9580 H   0  0  0  0  0  0  0  0  0  0  0  0
   -0.6640    2.0057    1.4220 H   0  0  0  0  0  0  0  0  0  0  0  0
   -0.7764    0.5092    2.3037 H   0  0  0  0  0  0  0  0  0  0  0  0
    1.4705    1.7252    0.9939 H   0  0  0  0  0  0  0  0  0  0  0  0
    1.4556    0.4022    2.1277 H   0  0  0  0  0  0  0  0  0  0  0  0
   -2.8983    1.7342    0.9034 H   0  0  0  0  0  0  0  0  0  0  0  0
   -2.3331    1.9098   -0.7563 H   0  0  0  0  0  0  0  0  0  0  0  0
   -3.6636    0.0860   -1.4994 H   0  0  0  0  0  0  0  0  0  0  0  0
   -4.4829   -1.7553    0.0106 H   0  0  0  0  0  0  0  0  0  0  0  0
   -3.8012   -0.8948    1.4609 H   0  0  0  0  0  0  0  0  0  0  0  0
   -5.9364    0.2421   -0.4842 H   0  0  0  0  0  0  0  0  0  0  0  0
   -5.2542    1.1002    0.9698 H   0  0  0  0  0  0  0  0  0  0  0  0
  1  2  2  0  0  0  0
  1 26  1  0  0  0  0
  2  3  1  0  0  0  0
  2 17  1  0  0  0  0
  3  4  2  0  0  0  0
  3 15  1  0  0  0  0
  4  5  1  0  0  0  0
  5  6  2  0  0  0  0
  6  1  1  0  0  0  0
  6 27  1  0  0  0  0
  7  4  1  1  0  0  0
  7  8  1  0  0  0  0
  7 11  1  0  0  0  0
  7 21  1  0  0  0  0
  8  9  1  0  0  0  0
  8 18  1  6  0  0  0
  9 10  1  0  0  0  0
  9 19  1  0  0  0  0
  9 28  1  6  0  0  0
 10  5  1  0  0  0  0
 10 29  1  0  0  0  0
 10 30  1  0  0  0  0
 11 12  1  0  0  0  0
 11 15  1  0  0  0  0
 11 31  1  1  0  0  0
 12 13  1  0  0  0  0
 12 16  2  0  0  0  0
 13 14  1  0  0  0  0
 13 32  1  0  0  0  0
 13 33  1  0  0  0  0
 14  8  1  0  0  0  0
 14 34  1  0  0  0  0
 14 35  1  0  0  0  0
 17 36  1  0  0  0  0
 18 37  1  0  0  0  0
 19 20  1  0  0  0  0
 19 22  1  0  0  0  0
 20 21  1  0  0  0  0
 20 38  1  0  0  0  0
 20 39  1  0  0  0  0
 21 40  1  0  0  0  0
 21 41  1  0  0  0  0
 22 23  1  0  0  0  0
 22 42  1  0  0  0  0
 22 43  1  0  0  0  0
 23 24  1  0  0  0  0
 23 44  1  0  0  0  0
 24 25  1  0  0  0  0
 24 45  1  0  0  0  0
 24 46  1  0  0  0  0
 25 23  1  0  0  0  0
 25 47  1  0  0  0  0
 25 48  1  0  0  0  0
M  END
>  <Mol_ID>
1088

>  <Formula>
C20H24ClNO4

>  <MolWeight>
377.86186

>  <Cat>
S2103

>  <Name>
Naltrexone HCl

>  <Synonyms>
PTI-901

>  <Target>
Opioid Receptor

>  <Form>
Hydrochloride

>  <CAS>
16676-29-2

>  <URL>
http://selleckchem.com/products/naltrexone-hcl.html

$$$$
