Naproxen
 OpenBabel08302520323D

 31 32  0  0  0  0  0  0  0  0999 V2000
   -0.0475   -0.7297    0.0299 C   0  0  0  0  0  0  0  0  0  0  0  0
   -0.0602    0.6803    0.0163 C   0  0  0  0  0  0  0  0  0  0  0  0
    1.1825   -1.4067    0.0385 C   0  0  0  0  0  0  0  0  0  0  0  0
   -1.2659   -1.4240    0.0241 C   0  0  0  0  0  0  0  0  0  0  0  0
   -1.2896    1.3560    0.0019 C   0  0  0  0  0  0  0  0  0  0  0  0
    1.1554    1.3771    0.0091 C   0  0  0  0  0  0  0  0  0  0  0  0
    2.4024   -0.7072    0.0258 C   0  0  0  0  0  0  0  0  0  0  0  0
   -2.4825   -0.7358    0.0042 C   0  0  0  0  0  0  0  0  0  0  0  0
   -2.4993    0.6570   -0.0056 C   0  0  0  0  0  0  0  0  0  0  0  0
    2.3723    0.6931    0.0062 C   0  0  0  0  0  0  0  0  0  0  0  0
    3.7055   -1.4907   -0.0553 C   0  0  1  0  0  0  0  0  0  0  0  0
   -3.6149    1.4478   -0.0245 O   0  0  0  0  0  0  0  0  0  0  0  0
    4.2327   -1.7125   -1.4737 C   0  0  0  0  0  0  0  0  0  0  0  0
    4.8110   -0.8846    0.8160 C   0  0  0  0  0  0  0  0  0  0  0  0
   -4.8711    0.7818   -0.0287 C   0  0  0  0  0  0  0  0  0  0  0  0
    3.4577   -1.2744   -2.4902 O   0  0  0  0  0  0  0  0  0  0  0  0
    5.2932   -2.2830   -1.7013 O   0  0  0  0  0  0  0  0  0  0  0  0
    1.1883   -2.4968    0.0441 H   0  0  0  0  0  0  0  0  0  0  0  0
   -1.2800   -2.5118    0.0316 H   0  0  0  0  0  0  0  0  0  0  0  0
   -1.3153    2.4438   -0.0077 H   0  0  0  0  0  0  0  0  0  0  0  0
    1.1639    2.4657   -0.0041 H   0  0  0  0  0  0  0  0  0  0  0  0
   -3.3968   -1.3201   -0.0040 H   0  0  0  0  0  0  0  0  0  0  0  0
    3.2893    1.2782   -0.0229 H   0  0  0  0  0  0  0  0  0  0  0  0
    3.5039   -2.4959    0.3409 H   0  0  0  0  0  0  0  0  0  0  0  0
    4.4704   -0.7518    1.8489 H   0  0  0  0  0  0  0  0  0  0  0  0
    5.6931   -1.5339    0.8356 H   0  0  0  0  0  0  0  0  0  0  0  0
    5.1443    0.0880    0.4378 H   0  0  0  0  0  0  0  0  0  0  0  0
   -4.9905    0.1747   -0.9321 H   0  0  0  0  0  0  0  0  0  0  0  0
   -5.0005    0.1773    0.8753 H   0  0  0  0  0  0  0  0  0  0  0  0
   -5.6548    1.5453   -0.0341 H   0  0  0  0  0  0  0  0  0  0  0  0
    2.6220   -0.8389   -2.2297 H   0  0  0  0  0  0  0  0  0  0  0  0
  1  2  1  0  0  0  0
  1  3  2  0  0  0  0
  1  4  1  0  0  0  0
  2  5  1  0  0  0  0
  2  6  2  0  0  0  0
  3  7  1  0  0  0  0
  3 18  1  0  0  0  0
  4  8  2  0  0  0  0
  4 19  1  0  0  0  0
  5  9  2  0  0  0  0
  5 20  1  0  0  0  0
  6 10  1  0  0  0  0
  6 21  1  0  0  0  0
  7 11  1  0  0  0  0
  7 10  2  0  0  0  0
  8  9  1  0  0  0  0
  8 22  1  0  0  0  0
  9 12  1  0  0  0  0
 10 23  1  0  0  0  0
 11 13  1  0  0  0  0
 11 14  1  0  0  0  0
 11 24  1  1  0  0  0
 12 15  1  0  0  0  0
 13 16  1  0  0  0  0
 13 17  2  0  0  0  0
 14 25  1  0  0  0  0
 14 26  1  0  0  0  0
 14 27  1  0  0  0  0
 15 28  1  0  0  0  0
 15 29  1  0  0  0  0
 15 30  1  0  0  0  0
 16 31  1  0  0  0  0
M  END
>  <Mol_ID>
3341

>  <Formula>
C14H14O3

>  <MolWeight>
230.25916

>  <Cat>
S5177

>  <Name>
Naproxen

>  <Synonyms>
N/A

>  <Target>
COX

>  <Form>
Free Base

>  <CAS>
22204-53-1

>  <URL>
http://www.selleckchem.com/products/naproxen.html

$$$$
