Naratriptan Hydrochloride.cdx
 OpenBabel08302520013D

 48 50  0  0  0  0  0  0  0  0999 V2000
    2.1060    0.1608   -0.5953 C   0  0  0  0  0  0  0  0  0  0  0  0
    2.1959    1.5038   -0.2195 C   0  0  0  0  0  0  0  0  0  0  0  0
    1.0642    2.3314   -0.1812 C   0  0  0  0  0  0  0  0  0  0  0  0
   -0.1892    1.7405   -0.3898 C   0  0  0  0  0  0  0  0  0  0  0  0
   -0.3382    0.3894   -0.7104 C   0  0  0  0  0  0  0  0  0  0  0  0
    0.8505   -0.3473   -0.9762 C   0  0  0  0  0  0  0  0  0  0  0  0
   -1.4560    2.2668   -0.2759 N   0  0  0  0  0  0  0  0  0  0  0  0
   -2.3946    1.2631   -0.2790 C   0  0  0  0  0  0  0  0  0  0  0  0
   -1.7428    0.0518   -0.4471 C   0  0  0  0  0  0  0  0  0  0  0  0
   -2.3487   -1.3443   -0.2211 C   0  0  0  0  0  0  0  0  0  0  0  0
   -3.3424   -1.5113    0.9529 C   0  0  0  0  0  0  0  0  0  0  0  0
   -2.7438   -1.1780    2.3202 C   0  0  0  0  0  0  0  0  0  0  0  0
   -1.2946   -1.3182    2.4810 N   0  0  0  0  0  0  0  0  0  0  0  0
   -0.5540   -2.0213    1.4226 C   0  0  0  0  0  0  0  0  0  0  0  0
   -1.3024   -2.4017    0.1306 C   0  0  0  0  0  0  0  0  0  0  0  0
   -0.7107   -0.0159    2.8296 C   0  0  0  0  0  0  0  0  0  0  0  0
    3.2695   -0.7844   -0.3224 C   0  0  0  0  0  0  0  0  0  0  0  0
    3.8214   -1.5704   -1.5021 C   0  0  0  0  0  0  0  0  0  0  0  0
    5.0622   -2.7509   -0.9194 S   0  0  0  0  0  0  0  0  0  0  0  0
    6.1443   -2.0276   -0.2750 O   0  0  0  0  0  0  0  0  0  0  0  0
    4.4057   -3.8496   -0.2564 O   0  0  0  0  0  0  0  0  0  0  0  0
    5.7253   -3.3522   -2.3492 N   0  0  0  0  0  0  0  0  0  0  0  0
    4.8773   -4.2021   -3.1896 C   0  0  0  0  0  0  0  0  0  0  0  0
    3.1493    1.9158    0.1071 H   0  0  0  0  0  0  0  0  0  0  0  0
    1.1531    3.3671    0.1384 H   0  0  0  0  0  0  0  0  0  0  0  0
    0.7922   -1.3861   -1.2777 H   0  0  0  0  0  0  0  0  0  0  0  0
   -1.6473    3.2363   -0.0724 H   0  0  0  0  0  0  0  0  0  0  0  0
   -3.4290    1.4928   -0.0583 H   0  0  0  0  0  0  0  0  0  0  0  0
   -2.8733   -1.6283   -1.1432 H   0  0  0  0  0  0  0  0  0  0  0  0
   -3.6489   -2.5701    0.9957 H   0  0  0  0  0  0  0  0  0  0  0  0
   -4.2732   -0.9578    0.7973 H   0  0  0  0  0  0  0  0  0  0  0  0
   -3.2116   -1.8194    3.0786 H   0  0  0  0  0  0  0  0  0  0  0  0
   -3.0785   -0.1655    2.5839 H   0  0  0  0  0  0  0  0  0  0  0  0
    0.3416   -1.4536    1.1668 H   0  0  0  0  0  0  0  0  0  0  0  0
   -0.1430   -2.9439    1.8461 H   0  0  0  0  0  0  0  0  0  0  0  0
   -1.7828   -3.3798    0.2705 H   0  0  0  0  0  0  0  0  0  0  0  0
   -0.6294   -2.5745   -0.7104 H   0  0  0  0  0  0  0  0  0  0  0  0
    0.3829   -0.0059    2.7871 H   0  0  0  0  0  0  0  0  0  0  0  0
   -1.0740    0.7923    2.1891 H   0  0  0  0  0  0  0  0  0  0  0  0
   -0.9925    0.2497    3.8543 H   0  0  0  0  0  0  0  0  0  0  0  0
    4.0879   -0.2259    0.1493 H   0  0  0  0  0  0  0  0  0  0  0  0
    2.9287   -1.4868    0.4541 H   0  0  0  0  0  0  0  0  0  0  0  0
    3.0511   -2.1531   -1.9983 H   0  0  0  0  0  0  0  0  0  0  0  0
    4.3150   -0.9008   -2.2271 H   0  0  0  0  0  0  0  0  0  0  0  0
    6.6455   -3.7488   -2.1485 H   0  0  0  0  0  0  0  0  0  0  0  0
    4.0496   -3.6246   -3.6066 H   0  0  0  0  0  0  0  0  0  0  0  0
    5.4764   -4.5820   -4.0232 H   0  0  0  0  0  0  0  0  0  0  0  0
    4.4976   -5.0629   -2.6344 H   0  0  0  0  0  0  0  0  0  0  0  0
  1  2  2  0  0  0  0
  1 17  1  0  0  0  0
  2  3  1  0  0  0  0
  2 24  1  0  0  0  0
  3  4  2  0  0  0  0
  3 25  1  0  0  0  0
  4  5  1  0  0  0  0
  4  7  1  0  0  0  0
  5  6  2  0  0  0  0
  6  1  1  0  0  0  0
  6 26  1  0  0  0  0
  7  8  1  0  0  0  0
  7 27  1  0  0  0  0
  8  9  2  0  0  0  0
  8 28  1  0  0  0  0
  9  5  1  0  0  0  0
  9 10  1  0  0  0  0
 10 11  1  0  0  0  0
 10 29  1  0  0  0  0
 11 12  1  0  0  0  0
 11 30  1  0  0  0  0
 11 31  1  0  0  0  0
 12 13  1  0  0  0  0
 12 32  1  0  0  0  0
 12 33  1  0  0  0  0
 13 14  1  0  0  0  0
 13 16  1  0  0  0  0
 14 15  1  0  0  0  0
 14 34  1  0  0  0  0
 14 35  1  0  0  0  0
 15 10  1  0  0  0  0
 15 36  1  0  0  0  0
 15 37  1  0  0  0  0
 16 38  1  0  0  0  0
 16 39  1  0  0  0  0
 16 40  1  0  0  0  0
 17 18  1  0  0  0  0
 17 41  1  0  0  0  0
 17 42  1  0  0  0  0
 18 19  1  0  0  0  0
 18 43  1  0  0  0  0
 18 44  1  0  0  0  0
 19 20  2  0  0  0  0
 19 21  2  0  0  0  0
 19 22  1  0  0  0  0
 22 23  1  0  0  0  0
 22 45  1  0  0  0  0
 23 46  1  0  0  0  0
 23 47  1  0  0  0  0
 23 48  1  0  0  0  0
M  END
>  <Mol_ID>
288

>  <Formula>
C17H26ClN3O2S

>  <MolWeight>
371.92524

>  <Cat>
S1488

>  <Name>
Naratriptan HCl

>  <Synonyms>
N/A

>  <Target>
5-HT Receptor

>  <Form>
Hydrochloride

>  <CAS>
143388-64-1

>  <URL>
http://selleckchem.com/products/Naratriptan(Amerge).html

$$$$
