Naringenin triacetate
 OpenBabel08302521503D

 47 49  0  0  1  0  0  0  0  0999 V2000
    1.0655    0.4091   -0.2706 O   0  0  0  0  0  0  0  0  0  0  0  0
    0.0630   -0.5296   -0.5093 C   0  0  0  0  0  0  0  0  0  0  0  0
   -1.2642    0.1756   -0.5139 C   0  0  0  0  0  0  0  0  0  0  0  0
    0.2193   -1.7307   -0.6587 O   0  0  0  0  0  0  0  0  0  0  0  0
    1.4304    2.9310    0.4016 O   0  0  0  0  0  0  0  0  0  0  0  0
    5.0459   -2.3658   -0.0981 O   0  0  0  0  0  0  0  0  0  0  0  0
    6.3628   -2.7279    0.2103 C   0  0  0  0  0  0  0  0  0  0  0  0
    6.4748   -4.2279    0.2190 C   0  0  0  0  0  0  0  0  0  0  0  0
    7.3001   -1.9731    0.4160 O   0  0  0  0  0  0  0  0  0  0  0  0
    3.8877    4.2080    6.0966 O   0  0  0  0  0  0  0  0  0  0  0  0
    4.6093    3.6483    7.1502 C   0  0  0  0  0  0  0  0  0  0  0  0
    3.7779    3.7155    8.3976 C   0  0  0  0  0  0  0  0  0  0  0  0
    5.7120    3.1280    7.0969 O   0  0  0  0  0  0  0  0  0  0  0  0
    3.2178    1.4111    0.0154 C   0  0  0  0  0  0  0  0  0  0  0  0
    4.6114    1.3584    0.0884 C   0  0  0  0  0  0  0  0  0  0  0  0
    2.4678    0.2394   -0.1473 C   0  0  0  0  0  0  0  0  0  0  0  0
    2.5877    2.7428    0.0479 C   0  0  0  0  0  0  0  0  0  0  0  0
    5.4157    2.4685    0.1861 O   0  0  0  0  0  0  0  0  0  0  0  0
    5.2590    0.1191    0.0350 C   0  0  0  0  0  0  0  0  0  0  0  0
    3.1063   -0.9970   -0.2081 C   0  0  0  0  0  0  0  0  0  0  0  0
    3.4895    3.8536   -0.3927 C   0  0  0  0  0  0  0  0  0  0  0  0
    4.7593    3.7372    0.4438 C   0  0  1  0  0  0  0  0  0  0  0  0
    4.5030   -1.0503   -0.0924 C   0  0  0  0  0  0  0  0  0  0  0  0
    4.5983    3.9792    1.9457 C   0  0  0  0  0  0  0  0  0  0  0  0
    5.5872    3.5194    2.8344 C   0  0  0  0  0  0  0  0  0  0  0  0
    3.4847    4.6428    2.4860 C   0  0  0  0  0  0  0  0  0  0  0  0
    5.4085    3.6139    4.2205 C   0  0  0  0  0  0  0  0  0  0  0  0
    3.2988    4.7232    3.8672 C   0  0  0  0  0  0  0  0  0  0  0  0
    4.2473    4.1757    4.7279 C   0  0  0  0  0  0  0  0  0  0  0  0
   -1.9212   -0.2938   -1.2483 H   0  0  0  0  0  0  0  0  0  0  0  0
   -1.7101    0.1193    0.4835 H   0  0  0  0  0  0  0  0  0  0  0  0
   -1.1437    1.2239   -0.7995 H   0  0  0  0  0  0  0  0  0  0  0  0
    6.7144   -4.5916   -0.7823 H   0  0  0  0  0  0  0  0  0  0  0  0
    7.2648   -4.5212    0.9167 H   0  0  0  0  0  0  0  0  0  0  0  0
    5.5436   -4.6808    0.5710 H   0  0  0  0  0  0  0  0  0  0  0  0
    3.0920    2.8650    8.4253 H   0  0  0  0  0  0  0  0  0  0  0  0
    4.4361    3.6843    9.2709 H   0  0  0  0  0  0  0  0  0  0  0  0
    3.2169    4.6529    8.4348 H   0  0  0  0  0  0  0  0  0  0  0  0
    6.3424    0.0943    0.0976 H   0  0  0  0  0  0  0  0  0  0  0  0
    2.5495   -1.9194   -0.3388 H   0  0  0  0  0  0  0  0  0  0  0  0
    3.6928    3.7107   -1.4606 H   0  0  0  0  0  0  0  0  0  0  0  0
    2.9843    4.8166   -0.2781 H   0  0  0  0  0  0  0  0  0  0  0  0
    5.4554    4.5055    0.0835 H   0  0  0  0  0  0  0  0  0  0  0  0
    6.4912    3.0522    2.4566 H   0  0  0  0  0  0  0  0  0  0  0  0
    2.7085    5.0711    1.8557 H   0  0  0  0  0  0  0  0  0  0  0  0
    6.1861    3.2026    4.8605 H   0  0  0  0  0  0  0  0  0  0  0  0
    2.3969    5.1819    4.2614 H   0  0  0  0  0  0  0  0  0  0  0  0
  1  2  1  0  0  0  0
  1 16  1  0  0  0  0
  2  3  1  0  0  0  0
  2  4  2  0  0  0  0
  3 30  1  0  0  0  0
  3 31  1  0  0  0  0
  3 32  1  0  0  0  0
  5 17  2  0  0  0  0
  6  7  1  0  0  0  0
  6 23  1  0  0  0  0
  7  8  1  0  0  0  0
  7  9  2  0  0  0  0
  8 33  1  0  0  0  0
  8 34  1  0  0  0  0
  8 35  1  0  0  0  0
 10 11  1  0  0  0  0
 10 29  1  0  0  0  0
 11 12  1  0  0  0  0
 11 13  2  0  0  0  0
 12 36  1  0  0  0  0
 12 37  1  0  0  0  0
 12 38  1  0  0  0  0
 14 15  1  0  0  0  0
 14 16  2  0  0  0  0
 14 17  1  0  0  0  0
 15 18  1  0  0  0  0
 15 19  2  0  0  0  0
 16 20  1  0  0  0  0
 17 21  1  0  0  0  0
 18 22  1  0  0  0  0
 19 23  1  0  0  0  0
 19 39  1  0  0  0  0
 20 23  2  0  0  0  0
 20 40  1  0  0  0  0
 21 22  1  0  0  0  0
 21 41  1  0  0  0  0
 21 42  1  0  0  0  0
 22 43  1  6  0  0  0
 22 24  1  0  0  0  0
 24 25  2  0  0  0  0
 24 26  1  0  0  0  0
 25 27  1  0  0  0  0
 25 44  1  0  0  0  0
 26 28  2  0  0  0  0
 26 45  1  0  0  0  0
 27 29  2  0  0  0  0
 27 46  1  0  0  0  0
 28 29  1  0  0  0  0
 28 47  1  0  0  0  0
M  END
>  <Mol_ID>
9869

>  <Formula>
C21H18O8

>  <MolWeight>
398.36282

>  <Cat>
E2617

>  <Name>
Naringenin triacetate

>  <Synonyms>
N/A

>  <Target>
Epigenetic Reader Domain

>  <Form>
free base

>  <CAS>
3682-04-0

>  <URL>
https://www.selleckchem.com/products/naringenintriacetate.html

$$$$
