Navoximod
 OpenBabel08302521303D

 44 47  0  0  0  0  0  0  0  0999 V2000
   -3.6361   -5.0161    2.1113 F   0  0  0  0  0  0  0  0  0  0  0  0
   -1.9383   -2.8058    0.6990 O   0  0  0  0  0  0  0  0  0  0  0  0
    3.4509   -2.6734    4.3386 O   0  0  0  0  0  0  0  0  0  0  0  0
   -5.2781   -0.9936    2.5705 N   0  0  0  0  0  0  0  0  0  0  0  0
   -6.4578    0.7784    3.0550 N   0  0  0  0  0  0  0  0  0  0  0  0
   -0.3937   -2.2299    2.4895 C   0  0  1  0  0  0  0  0  0  0  0  0
   -1.8402   -2.6354    2.1111 C   0  0  1  0  0  0  0  0  0  0  0  0
   -0.2425   -2.0412    4.0124 C   0  0  0  0  0  0  0  0  0  0  0  0
    0.5953   -3.2980    1.9691 C   0  0  0  0  0  0  0  0  0  0  0  0
   -2.9080   -1.6211    2.5193 C   0  0  0  0  0  0  0  0  0  0  0  0
   -4.3426   -2.0423    2.1507 C   0  0  1  0  0  0  0  0  0  0  0  0
    1.2030   -1.8132    4.4416 C   0  0  0  0  0  0  0  0  0  0  0  0
    2.0284   -3.0626    2.4316 C   0  0  0  0  0  0  0  0  0  0  0  0
    2.1106   -2.9338    3.9479 C   0  0  1  0  0  0  0  0  0  0  0  0
   -4.8855   -3.2069    2.9859 C   0  0  0  0  0  0  0  0  0  0  0  0
   -6.1437   -1.3901    3.5558 C   0  0  0  0  0  0  0  0  0  0  0  0
   -5.9169   -2.7685    3.8490 C   0  0  0  0  0  0  0  0  0  0  0  0
   -5.4811    0.3069    2.2982 C   0  0  0  0  0  0  0  0  0  0  0  0
   -4.5294   -4.5393    2.9869 C   0  0  0  0  0  0  0  0  0  0  0  0
   -6.8821   -0.2810    3.8461 C   0  0  0  0  0  0  0  0  0  0  0  0
   -6.5282   -3.6088    4.7571 C   0  0  0  0  0  0  0  0  0  0  0  0
   -5.1169   -5.4048    3.9080 C   0  0  0  0  0  0  0  0  0  0  0  0
   -6.1011   -4.9414    4.7966 C   0  0  0  0  0  0  0  0  0  0  0  0
   -2.0725   -3.7577    0.5296 H   0  0  0  0  0  0  0  0  0  0  0  0
    3.7325   -1.8426    3.9236 H   0  0  0  0  0  0  0  0  0  0  0  0
   -0.1474   -1.2834    1.9897 H   0  0  0  0  0  0  0  0  0  0  0  0
   -2.0336   -3.5952    2.5929 H   0  0  0  0  0  0  0  0  0  0  0  0
   -0.6327   -2.9250    4.5328 H   0  0  0  0  0  0  0  0  0  0  0  0
   -0.8351   -1.1849    4.3513 H   0  0  0  0  0  0  0  0  0  0  0  0
    0.2739   -4.2909    2.3099 H   0  0  0  0  0  0  0  0  0  0  0  0
    0.5795   -3.3219    0.8727 H   0  0  0  0  0  0  0  0  0  0  0  0
   -2.6891   -0.6691    2.0196 H   0  0  0  0  0  0  0  0  0  0  0  0
   -2.8569   -1.4312    3.5993 H   0  0  0  0  0  0  0  0  0  0  0  0
   -4.5027   -2.2085    1.0807 H   0  0  0  0  0  0  0  0  0  0  0  0
    1.2635   -1.7395    5.5336 H   0  0  0  0  0  0  0  0  0  0  0  0
    1.5573   -0.8474    4.0581 H   0  0  0  0  0  0  0  0  0  0  0  0
    2.4301   -2.1589    1.9564 H   0  0  0  0  0  0  0  0  0  0  0  0
    2.6699   -3.8853    2.0957 H   0  0  0  0  0  0  0  0  0  0  0  0
    1.8136   -3.8800    4.4163 H   0  0  0  0  0  0  0  0  0  0  0  0
   -4.9123    0.8745    1.5731 H   0  0  0  0  0  0  0  0  0  0  0  0
   -7.6840   -0.1601    4.5627 H   0  0  0  0  0  0  0  0  0  0  0  0
   -7.3074   -3.2532    5.4185 H   0  0  0  0  0  0  0  0  0  0  0  0
   -4.8083   -6.4464    3.9317 H   0  0  0  0  0  0  0  0  0  0  0  0
   -6.5476   -5.6284    5.5122 H   0  0  0  0  0  0  0  0  0  0  0  0
  1 19  1  0  0  0  0
  2 24  1  0  0  0  0
  3 25  1  0  0  0  0
  4 11  1  0  0  0  0
  4 16  1  0  0  0  0
  4 18  1  0  0  0  0
  5 18  2  0  0  0  0
  5 20  1  0  0  0  0
  6  8  1  0  0  0  0
  6  9  1  0  0  0  0
  6  7  1  0  0  0  0
  6 26  1  6  0  0  0
  7 10  1  0  0  0  0
  7 27  1  1  0  0  0
  7  2  1  0  0  0  0
  8 12  1  0  0  0  0
  8 28  1  0  0  0  0
  8 29  1  0  0  0  0
  9 13  1  0  0  0  0
  9 30  1  0  0  0  0
  9 31  1  0  0  0  0
 10 32  1  0  0  0  0
 10 33  1  0  0  0  0
 11 10  1  0  0  0  0
 11 15  1  0  0  0  0
 11 34  1  6  0  0  0
 12 14  1  0  0  0  0
 12 35  1  0  0  0  0
 12 36  1  0  0  0  0
 13 14  1  0  0  0  0
 13 37  1  0  0  0  0
 13 38  1  0  0  0  0
 14  3  1  0  0  0  0
 14 39  1  1  0  0  0
 15 17  2  0  0  0  0
 15 19  1  0  0  0  0
 16 17  1  0  0  0  0
 16 20  2  0  0  0  0
 17 21  1  0  0  0  0
 18 40  1  0  0  0  0
 19 22  2  0  0  0  0
 20 41  1  0  0  0  0
 21 23  2  0  0  0  0
 21 42  1  0  0  0  0
 22 23  1  0  0  0  0
 22 43  1  0  0  0  0
 23 44  1  0  0  0  0
M  END
>  <Mol_ID>
5548

>  <Formula>
C18H21FN2O2

>  <MolWeight>
316.3699432

>  <Cat>
S8957

>  <Name>
Navoximod

>  <Synonyms>
GDC-0919, NLG-919

>  <Target>
IDO/TDO

>  <Form>
Free Base

>  <CAS>
1402837-78-8

>  <URL>
https://www.selleckchem.com/products/navoximod.html

$$$$
