Nazartinib (EGF816, NVS-816).cdx
 OpenBabel08302520003D

 66 69  0  0  0  0  0  0  0  0999 V2000
   -1.9777   -1.7239   -0.6542 C   0  0  0  0  0  0  0  0  0  0  0  0
   -2.3083   -0.3930   -0.7935 C   0  0  0  0  0  0  0  0  0  0  0  0
   -1.3072    0.5566   -0.9565 C   0  0  0  0  0  0  0  0  0  0  0  0
    0.0612    0.1990   -0.8238 C   0  0  0  0  0  0  0  0  0  0  0  0
    0.3790   -1.1475   -0.7440 C   0  0  0  0  0  0  0  0  0  0  0  0
   -0.6391   -2.1182   -0.6947 C   0  0  0  0  0  0  0  0  0  0  0  0
    1.3041    0.8755   -0.6030 N   0  0  0  0  0  0  0  0  0  0  0  0
    2.2846   -0.1291   -0.6217 C   0  0  0  0  0  0  0  0  0  0  0  0
    1.7221   -1.3150   -0.7185 N   0  0  0  0  0  0  0  0  0  0  0  0
    3.6637    0.0318   -0.5449 N   0  0  0  0  0  0  0  0  0  0  0  0
    1.4535    2.3444   -0.4941 C   0  0  2  0  0  0  0  0  0  0  0  0
    2.2868    3.1655    0.5862 C   0  0  0  0  0  0  0  0  0  0  0  0
    1.6419    4.2688    1.5739 C   0  0  0  0  0  0  0  0  0  0  0  0
    0.3425    5.0960    1.2858 C   0  0  0  0  0  0  0  0  0  0  0  0
   -0.9582    4.2807    1.2827 C   0  0  0  0  0  0  0  0  0  0  0  0
   -0.6726    2.9576    0.8004 N   0  0  0  0  0  0  0  0  0  0  0  0
    0.1057    3.0197   -0.5020 C   0  0  0  0  0  0  0  0  0  0  0  0
    4.4979   -1.0955   -0.6548 C   0  0  0  0  0  0  0  0  0  0  0  0
    5.9730   -0.9059   -0.5408 C   0  0  0  0  0  0  0  0  0  0  0  0
    4.1567   -2.2566   -0.8803 O   0  0  0  0  0  0  0  0  0  0  0  0
    6.5564    0.1069    0.2169 C   0  0  0  0  0  0  0  0  0  0  0  0
    7.9469    0.1496    0.2981 C   0  0  0  0  0  0  0  0  0  0  0  0
    8.7470   -0.7437   -0.3302 N   0  0  0  0  0  0  0  0  0  0  0  0
    8.1746   -1.7310   -1.0309 C   0  0  0  0  0  0  0  0  0  0  0  0
    6.7983   -1.8617   -1.1582 C   0  0  0  0  0  0  0  0  0  0  0  0
    8.6505    1.2140    1.0814 C   0  0  0  0  0  0  0  0  0  0  0  0
   -0.5579    1.9339    1.7834 C   0  0  0  0  0  0  0  0  0  0  0  0
   -1.5905    1.9127    2.8928 C   0  0  0  0  0  0  0  0  0  0  0  0
    0.3624    1.1258    1.8390 O   0  0  0  0  0  0  0  0  0  0  0  0
   -1.4352    1.1088    3.9640 C   0  0  0  0  0  0  0  0  0  0  0  0
   -2.2136    1.0685    5.2624 C   0  0  0  0  0  0  0  0  0  0  0  0
   -3.4117    1.9159    5.3824 N   0  0  0  0  0  0  0  0  0  0  0  0
   -4.5524    1.3139    4.6829 C   0  0  0  0  0  0  0  0  0  0  0  0
   -3.7738    2.0575    6.8043 C   0  0  0  0  0  0  0  0  0  0  0  0
   -2.7680   -2.4510   -0.4881 H   0  0  0  0  0  0  0  0  0  0  0  0
   -3.3411   -0.0584   -0.7434 H   0  0  0  0  0  0  0  0  0  0  0  0
   -1.6962    1.5568   -1.0536 H   0  0  0  0  0  0  0  0  0  0  0  0
   -0.3718   -3.1638   -0.6204 H   0  0  0  0  0  0  0  0  0  0  0  0
    4.0554    0.9492   -0.4402 H   0  0  0  0  0  0  0  0  0  0  0  0
    1.9517    2.5702   -1.4519 H   0  0  0  0  0  0  0  0  0  0  0  0
    2.9260    2.5042    1.1807 H   0  0  0  0  0  0  0  0  0  0  0  0
    2.9914    3.7677   -0.0121 H   0  0  0  0  0  0  0  0  0  0  0  0
    1.5091    3.7972    2.5542 H   0  0  0  0  0  0  0  0  0  0  0  0
    2.4208    5.0306    1.7231 H   0  0  0  0  0  0  0  0  0  0  0  0
    0.2181    5.8799    2.0436 H   0  0  0  0  0  0  0  0  0  0  0  0
    0.4392    5.6533    0.3443 H   0  0  0  0  0  0  0  0  0  0  0  0
   -1.3734    4.2778    2.2903 H   0  0  0  0  0  0  0  0  0  0  0  0
   -1.7172    4.7093    0.6175 H   0  0  0  0  0  0  0  0  0  0  0  0
    0.2871    4.0632   -0.7766 H   0  0  0  0  0  0  0  0  0  0  0  0
   -0.4870    2.7811   -1.3810 H   0  0  0  0  0  0  0  0  0  0  0  0
    5.9587    0.8182    0.7694 H   0  0  0  0  0  0  0  0  0  0  0  0
    8.8496   -2.4630   -1.5006 H   0  0  0  0  0  0  0  0  0  0  0  0
    6.3774   -2.6954   -1.7120 H   0  0  0  0  0  0  0  0  0  0  0  0
    9.4072    0.7620    1.7314 H   0  0  0  0  0  0  0  0  0  0  0  0
    9.1475    1.9076    0.3958 H   0  0  0  0  0  0  0  0  0  0  0  0
    7.9541    1.7773    1.7083 H   0  0  0  0  0  0  0  0  0  0  0  0
   -2.4250    2.5953    2.8380 H   0  0  0  0  0  0  0  0  0  0  0  0
   -0.6023    0.4036    3.9626 H   0  0  0  0  0  0  0  0  0  0  0  0
   -2.4538    0.0268    5.5171 H   0  0  0  0  0  0  0  0  0  0  0  0
   -1.4873    1.3992    6.0193 H   0  0  0  0  0  0  0  0  0  0  0  0
   -4.8254    0.3368    5.0991 H   0  0  0  0  0  0  0  0  0  0  0  0
   -5.4283    1.9698    4.7587 H   0  0  0  0  0  0  0  0  0  0  0  0
   -4.3478    1.1893    3.6163 H   0  0  0  0  0  0  0  0  0  0  0  0
   -4.0023    1.0922    7.2732 H   0  0  0  0  0  0  0  0  0  0  0  0
   -2.9653    2.5305    7.3740 H   0  0  0  0  0  0  0  0  0  0  0  0
   -4.6518    2.7054    6.9187 H   0  0  0  0  0  0  0  0  0  0  0  0
  1  2  2  0  0  0  0
  1 35  1  0  0  0  0
  2  3  1  0  0  0  0
  2 36  1  0  0  0  0
  3  4  2  0  0  0  0
  3 37  1  0  0  0  0
  4  5  1  0  0  0  0
  4  7  1  0  0  0  0
  5  6  2  0  0  0  0
  6  1  1  0  0  0  0
  6 38  1  0  0  0  0
  7  8  1  0  0  0  0
  8  9  2  0  0  0  0
  8 10  1  0  0  0  0
  9  5  1  0  0  0  0
 10 18  1  0  0  0  0
 10 39  1  0  0  0  0
 11  7  1  0  0  0  0
 11 12  1  0  0  0  0
 11 40  1  6  0  0  0
 12 13  1  0  0  0  0
 12 41  1  0  0  0  0
 12 42  1  0  0  0  0
 13 14  1  0  0  0  0
 13 43  1  0  0  0  0
 13 44  1  0  0  0  0
 14 15  1  0  0  0  0
 14 45  1  0  0  0  0
 14 46  1  0  0  0  0
 15 16  1  0  0  0  0
 15 47  1  0  0  0  0
 15 48  1  0  0  0  0
 16 17  1  0  0  0  0
 16 27  1  0  0  0  0
 17 11  1  0  0  0  0
 17 49  1  0  0  0  0
 17 50  1  0  0  0  0
 18 19  1  0  0  0  0
 18 20  2  0  0  0  0
 19 21  2  0  0  0  0
 21 22  1  0  0  0  0
 21 51  1  0  0  0  0
 22 23  2  0  0  0  0
 22 26  1  0  0  0  0
 23 24  1  0  0  0  0
 24 25  2  0  0  0  0
 24 52  1  0  0  0  0
 25 19  1  0  0  0  0
 25 53  1  0  0  0  0
 26 54  1  0  0  0  0
 26 55  1  0  0  0  0
 26 56  1  0  0  0  0
 27 28  1  0  0  0  0
 27 29  2  0  0  0  0
 28 30  2  0  0  0  0
 28 57  1  0  0  0  0
 30 31  1  0  0  0  0
 30 58  1  0  0  0  0
 31 32  1  0  0  0  0
 31 59  1  0  0  0  0
 31 60  1  0  0  0  0
 32 33  1  0  0  0  0
 32 34  1  0  0  0  0
 33 61  1  0  0  0  0
 33 62  1  0  0  0  0
 33 63  1  0  0  0  0
 34 64  1  0  0  0  0
 34 65  1  0  0  0  0
 34 66  1  0  0  0  0
M  END
>  <Mol_ID>
2734

>  <Formula>
C26H31ClN6O2

>  <MolWeight>
495.01634

>  <Cat>
S7824

>  <Name>
Nazartinib (EGF816)

>  <Synonyms>
NVS-816

>  <Target>
EGFR

>  <Form>
free base

>  <CAS>
1508250-71-2

>  <URL>
http://selleckchem.com/products/nazartinib-egf816-nvs-816.html

$$$$
