NCGC00378430
 OpenBabel08302521303D

 54 57  0  0  0  0  0  0  0  0999 V2000
    1.4991   -0.2901    0.4108 C   0  0  0  0  0  0  0  0  0  0  0  0
    0.6625   -1.3541    0.0564 C   0  0  0  0  0  0  0  0  0  0  0  0
   -0.7165   -1.1052   -0.0144 C   0  0  0  0  0  0  0  0  0  0  0  0
   -1.2580    0.1609    0.2204 C   0  0  0  0  0  0  0  0  0  0  0  0
   -0.4364    1.2348    0.5414 C   0  0  0  0  0  0  0  0  0  0  0  0
    0.9386    0.9980    0.6428 C   0  0  0  0  0  0  0  0  0  0  0  0
    3.2775   -0.3645    0.4501 S   0  0  0  0  0  0  0  0  0  0  0  0
   -0.9236    2.5560    0.7177 N   0  0  0  0  0  0  0  0  0  0  0  0
   -2.2643    2.9018    0.8435 C   0  0  0  0  0  0  0  0  0  0  0  0
   -2.6019    4.3524    0.9130 C   0  0  0  0  0  0  0  0  0  0  0  0
   -1.8604    5.3482    0.2638 C   0  0  0  0  0  0  0  0  0  0  0  0
   -2.2706    6.6912    0.3601 C   0  0  0  0  0  0  0  0  0  0  0  0
   -3.4251    7.0274    1.0832 C   0  0  0  0  0  0  0  0  0  0  0  0
   -4.1846    6.0298    1.6881 C   0  0  0  0  0  0  0  0  0  0  0  0
   -3.7732    4.7019    1.6053 C   0  0  0  0  0  0  0  0  0  0  0  0
   -1.5337    7.7171   -0.2914 N   0  0  0  0  0  0  0  0  0  0  0  0
   -0.7520    7.5737   -1.4202 C   0  0  0  0  0  0  0  0  0  0  0  0
   -0.2194    8.8000   -1.7556 C   0  0  0  0  0  0  0  0  0  0  0  0
   -0.6588    9.7267   -0.7879 C   0  0  0  0  0  0  0  0  0  0  0  0
   -1.4760    9.0448    0.0866 C   0  0  0  0  0  0  0  0  0  0  0  0
    0.9454   -2.6060   -0.4018 O   0  0  0  0  0  0  0  0  0  0  0  0
    1.9157   -3.4039    0.2478 C   0  0  0  0  0  0  0  0  0  0  0  0
    3.6830   -1.5220    1.6211 N   0  0  0  0  0  0  0  0  0  0  0  0
    3.7289   -0.8412   -0.8360 O   0  0  0  0  0  0  0  0  0  0  0  0
    3.7661    0.9000    0.9639 O   0  0  0  0  0  0  0  0  0  0  0  0
    3.1377   -1.3709    3.0003 C   0  0  0  0  0  0  0  0  0  0  0  0
    4.0465   -0.5376    3.9031 C   0  0  0  0  0  0  0  0  0  0  0  0
    5.3764   -1.0699    3.9307 O   0  0  0  0  0  0  0  0  0  0  0  0
    5.9439   -1.0488    2.6137 C   0  0  0  0  0  0  0  0  0  0  0  0
    5.1300   -1.9188    1.6509 C   0  0  0  0  0  0  0  0  0  0  0  0
   -3.1952    2.1089    0.9490 O   0  0  0  0  0  0  0  0  0  0  0  0
   -1.3950   -1.9089   -0.2997 H   0  0  0  0  0  0  0  0  0  0  0  0
   -2.3300    0.2722    0.0878 H   0  0  0  0  0  0  0  0  0  0  0  0
    1.5963    1.8350    0.8715 H   0  0  0  0  0  0  0  0  0  0  0  0
   -0.2313    3.2870    0.8349 H   0  0  0  0  0  0  0  0  0  0  0  0
   -0.9750    5.0806   -0.3023 H   0  0  0  0  0  0  0  0  0  0  0  0
   -3.7900    8.0508    1.1331 H   0  0  0  0  0  0  0  0  0  0  0  0
   -5.1065    6.2814    2.2072 H   0  0  0  0  0  0  0  0  0  0  0  0
   -4.3824    3.9296    2.0739 H   0  0  0  0  0  0  0  0  0  0  0  0
   -0.6804    6.6276   -1.9381 H   0  0  0  0  0  0  0  0  0  0  0  0
    0.4135    9.0015   -2.6103 H   0  0  0  0  0  0  0  0  0  0  0  0
   -0.4117   10.7792   -0.7309 H   0  0  0  0  0  0  0  0  0  0  0  0
   -1.9794    9.3978    0.9763 H   0  0  0  0  0  0  0  0  0  0  0  0
    2.9035   -3.2107   -0.1720 H   0  0  0  0  0  0  0  0  0  0  0  0
    1.8848   -3.2992    1.3346 H   0  0  0  0  0  0  0  0  0  0  0  0
    1.6868   -4.4516    0.0255 H   0  0  0  0  0  0  0  0  0  0  0  0
    3.0520   -2.3854    3.4108 H   0  0  0  0  0  0  0  0  0  0  0  0
    2.1265   -0.9565    2.9823 H   0  0  0  0  0  0  0  0  0  0  0  0
    4.0818    0.5113    3.5926 H   0  0  0  0  0  0  0  0  0  0  0  0
    3.6616   -0.5666    4.9276 H   0  0  0  0  0  0  0  0  0  0  0  0
    6.9633   -1.4411    2.6916 H   0  0  0  0  0  0  0  0  0  0  0  0
    6.0152   -0.0116    2.2692 H   0  0  0  0  0  0  0  0  0  0  0  0
    5.1662   -2.9648    1.9793 H   0  0  0  0  0  0  0  0  0  0  0  0
    5.5703   -1.8887    0.6490 H   0  0  0  0  0  0  0  0  0  0  0  0
  1  2  2  0  0  0  0
  1  7  1  0  0  0  0
  2  3  1  0  0  0  0
  2 21  1  0  0  0  0
  3  4  2  0  0  0  0
  3 32  1  0  0  0  0
  4  5  1  0  0  0  0
  4 33  1  0  0  0  0
  5  6  2  0  0  0  0
  5  8  1  0  0  0  0
  6  1  1  0  0  0  0
  6 34  1  0  0  0  0
  7 23  1  0  0  0  0
  7 24  2  0  0  0  0
  7 25  2  0  0  0  0
  8  9  1  0  0  0  0
  8 35  1  0  0  0  0
  9 10  1  0  0  0  0
  9 31  2  0  0  0  0
 10 11  2  0  0  0  0
 11 12  1  0  0  0  0
 11 36  1  0  0  0  0
 12 13  2  0  0  0  0
 12 16  1  0  0  0  0
 13 14  1  0  0  0  0
 13 37  1  0  0  0  0
 14 15  2  0  0  0  0
 14 38  1  0  0  0  0
 15 10  1  0  0  0  0
 15 39  1  0  0  0  0
 16 17  1  0  0  0  0
 17 18  2  0  0  0  0
 17 40  1  0  0  0  0
 18 19  1  0  0  0  0
 18 41  1  0  0  0  0
 19 20  2  0  0  0  0
 19 42  1  0  0  0  0
 20 16  1  0  0  0  0
 20 43  1  0  0  0  0
 21 22  1  0  0  0  0
 22 44  1  0  0  0  0
 22 45  1  0  0  0  0
 22 46  1  0  0  0  0
 23 26  1  0  0  0  0
 26 27  1  0  0  0  0
 26 47  1  0  0  0  0
 26 48  1  0  0  0  0
 27 28  1  0  0  0  0
 27 49  1  0  0  0  0
 27 50  1  0  0  0  0
 28 29  1  0  0  0  0
 29 30  1  0  0  0  0
 29 51  1  0  0  0  0
 29 52  1  0  0  0  0
 30 23  1  0  0  0  0
 30 53  1  0  0  0  0
 30 54  1  0  0  0  0
M  END
>  <Mol_ID>
5557

>  <Formula>
C22H23N3O5S

>  <MolWeight>
441.50012

>  <Cat>
S9677

>  <Name>
NCGC00378430

>  <Synonyms>
N/A

>  <Target>
Others

>  <Form>
Free Base

>  <CAS>
920650-00-6

>  <URL>
https://www.selleckchem.com/products/ncgc00378430.html

$$$$
