NCT-501.cdx
 OpenBabel08302519593D

 62 65  0  0  0  0  0  0  0  0999 V2000
    0.0063   -0.9259   -0.0238 C   0  0  0  0  0  0  0  0  0  0  0  0
   -0.2573    0.4115   -0.0435 C   0  0  0  0  0  0  0  0  0  0  0  0
    0.7407    1.3593   -0.0736 N   0  0  0  0  0  0  0  0  0  0  0  0
    2.0778    0.9517   -0.0691 C   0  0  0  0  0  0  0  0  0  0  0  0
    2.3190   -0.4296   -0.0259 N   0  0  0  0  0  0  0  0  0  0  0  0
    1.3404   -1.4306    0.0199 C   0  0  0  0  0  0  0  0  0  0  0  0
   -1.2312   -1.5374   -0.0613 N   0  0  0  0  0  0  0  0  0  0  0  0
   -2.1821   -0.5217   -0.0355 C   0  0  0  0  0  0  0  0  0  0  0  0
   -1.5897    0.6682   -0.0258 N   0  0  0  0  0  0  0  0  0  0  0  0
   -1.4713   -2.9716   -0.0907 C   0  0  0  0  0  0  0  0  0  0  0  0
    3.6979   -0.8808    0.0026 C   0  0  0  0  0  0  0  0  0  0  0  0
    1.6181   -2.6244    0.1001 O   0  0  0  0  0  0  0  0  0  0  0  0
    0.4104    2.7736   -0.1052 C   0  0  0  0  0  0  0  0  0  0  0  0
    2.9981    1.7737   -0.0966 O   0  0  0  0  0  0  0  0  0  0  0  0
   -3.6774   -0.6795   -0.1306 C   0  0  0  0  0  0  0  0  0  0  0  0
   -4.3489   -1.4194    0.9577 N   0  0  0  0  0  0  0  0  0  0  0  0
   -5.8174   -1.4338    0.7194 C   0  0  0  0  0  0  0  0  0  0  0  0
   -6.5484   -0.0789    0.9063 C   0  0  0  0  0  0  0  0  0  0  0  0
   -6.1756    0.6240    2.1365 N   0  0  0  0  0  0  0  0  0  0  0  0
   -4.7562    0.5671    2.5049 C   0  0  0  0  0  0  0  0  0  0  0  0
   -4.1407   -0.8280    2.3006 C   0  0  0  0  0  0  0  0  0  0  0  0
   -6.9361    1.6392    2.7219 C   0  0  0  0  0  0  0  0  0  0  0  0
   -6.5476    2.2728    3.6996 O   0  0  0  0  0  0  0  0  0  0  0  0
   -8.2756    1.9629    2.1327 C   0  0  0  0  0  0  0  0  0  0  0  0
   -8.9874    3.2390    2.5352 C   0  0  0  0  0  0  0  0  0  0  0  0
   -9.5170    1.9140    2.9966 C   0  0  0  0  0  0  0  0  0  0  0  0
   -2.1428   -3.5349   -1.3533 C   0  0  0  0  0  0  0  0  0  0  0  0
   -1.5247   -3.1029   -2.6975 C   0  0  0  0  0  0  0  0  0  0  0  0
   -0.1463   -3.7185   -2.9426 C   0  0  0  0  0  0  0  0  0  0  0  0
   -2.4569   -3.4803   -3.8544 C   0  0  0  0  0  0  0  0  0  0  0  0
   -0.5224   -3.4882    0.0606 H   0  0  0  0  0  0  0  0  0  0  0  0
   -2.0761   -3.2064    0.7924 H   0  0  0  0  0  0  0  0  0  0  0  0
    3.8692   -1.4272    0.9354 H   0  0  0  0  0  0  0  0  0  0  0  0
    3.8671   -1.5668   -0.8340 H   0  0  0  0  0  0  0  0  0  0  0  0
    4.4182   -0.0615   -0.0640 H   0  0  0  0  0  0  0  0  0  0  0  0
   -0.2138    2.9813   -0.9803 H   0  0  0  0  0  0  0  0  0  0  0  0
   -0.1335    3.0313    0.8082 H   0  0  0  0  0  0  0  0  0  0  0  0
    1.3046    3.4006   -0.1648 H   0  0  0  0  0  0  0  0  0  0  0  0
   -4.0970    0.3284   -0.2315 H   0  0  0  0  0  0  0  0  0  0  0  0
   -3.8909   -1.1784   -1.0824 H   0  0  0  0  0  0  0  0  0  0  0  0
   -6.0332   -1.8294   -0.2810 H   0  0  0  0  0  0  0  0  0  0  0  0
   -6.2607   -2.1559    1.4185 H   0  0  0  0  0  0  0  0  0  0  0  0
   -6.3313    0.5953    0.0696 H   0  0  0  0  0  0  0  0  0  0  0  0
   -7.6269   -0.2663    0.9062 H   0  0  0  0  0  0  0  0  0  0  0  0
   -4.2318    1.3128    1.8961 H   0  0  0  0  0  0  0  0  0  0  0  0
   -4.6305    0.8637    3.5522 H   0  0  0  0  0  0  0  0  0  0  0  0
   -4.6051   -1.5070    3.0313 H   0  0  0  0  0  0  0  0  0  0  0  0
   -3.0770   -0.8163    2.5605 H   0  0  0  0  0  0  0  0  0  0  0  0
   -8.3994    1.7152    1.0858 H   0  0  0  0  0  0  0  0  0  0  0  0
   -8.5229    3.8837    3.2744 H   0  0  0  0  0  0  0  0  0  0  0  0
   -9.5373    3.7744    1.7700 H   0  0  0  0  0  0  0  0  0  0  0  0
  -10.4375    1.5552    2.5518 H   0  0  0  0  0  0  0  0  0  0  0  0
   -9.4129    1.6809    4.0511 H   0  0  0  0  0  0  0  0  0  0  0  0
   -2.1335   -4.6311   -1.2845 H   0  0  0  0  0  0  0  0  0  0  0  0
   -3.2002   -3.2521   -1.3373 H   0  0  0  0  0  0  0  0  0  0  0  0
   -1.4235   -2.0119   -2.7058 H   0  0  0  0  0  0  0  0  0  0  0  0
   -0.2179   -4.7906   -3.1575 H   0  0  0  0  0  0  0  0  0  0  0  0
    0.3332   -3.2400   -3.8041 H   0  0  0  0  0  0  0  0  0  0  0  0
    0.5181   -3.5937   -2.0859 H   0  0  0  0  0  0  0  0  0  0  0  0
   -3.4798   -3.1374   -3.6674 H   0  0  0  0  0  0  0  0  0  0  0  0
   -2.1166   -3.0158   -4.7863 H   0  0  0  0  0  0  0  0  0  0  0  0
   -2.4871   -4.5645   -4.0099 H   0  0  0  0  0  0  0  0  0  0  0  0
  1  2  2  0  0  0  0
  1  7  1  0  0  0  0
  2  3  1  0  0  0  0
  3  4  1  0  0  0  0
  3 13  1  0  0  0  0
  4  5  1  0  0  0  0
  4 14  2  0  0  0  0
  5  6  1  0  0  0  0
  5 11  1  0  0  0  0
  6  1  1  0  0  0  0
  6 12  2  0  0  0  0
  7  8  1  0  0  0  0
  7 10  1  0  0  0  0
  8  9  2  0  0  0  0
  8 15  1  0  0  0  0
  9  2  1  0  0  0  0
 10 27  1  0  0  0  0
 10 31  1  0  0  0  0
 10 32  1  0  0  0  0
 11 33  1  0  0  0  0
 11 34  1  0  0  0  0
 11 35  1  0  0  0  0
 13 36  1  0  0  0  0
 13 37  1  0  0  0  0
 13 38  1  0  0  0  0
 15 16  1  0  0  0  0
 15 39  1  0  0  0  0
 15 40  1  0  0  0  0
 16 17  1  0  0  0  0
 17 18  1  0  0  0  0
 17 41  1  0  0  0  0
 17 42  1  0  0  0  0
 18 19  1  0  0  0  0
 18 43  1  0  0  0  0
 18 44  1  0  0  0  0
 19 20  1  0  0  0  0
 19 22  1  0  0  0  0
 20 21  1  0  0  0  0
 20 45  1  0  0  0  0
 20 46  1  0  0  0  0
 21 16  1  0  0  0  0
 21 47  1  0  0  0  0
 21 48  1  0  0  0  0
 22 23  2  0  0  0  0
 22 24  1  0  0  0  0
 24 25  1  0  0  0  0
 24 49  1  0  0  0  0
 25 26  1  0  0  0  0
 25 50  1  0  0  0  0
 25 51  1  0  0  0  0
 26 24  1  0  0  0  0
 26 52  1  0  0  0  0
 26 53  1  0  0  0  0
 27 28  1  0  0  0  0
 27 54  1  0  0  0  0
 27 55  1  0  0  0  0
 28 29  1  0  0  0  0
 28 30  1  0  0  0  0
 28 56  1  0  0  0  0
 29 57  1  0  0  0  0
 29 58  1  0  0  0  0
 29 59  1  0  0  0  0
 30 60  1  0  0  0  0
 30 61  1  0  0  0  0
 30 62  1  0  0  0  0
M  END
>  <Mol_ID>
2631

>  <Formula>
C21H32N6O3

>  <MolWeight>
416.51718

>  <Cat>
S7941

>  <Name>
NCT-501

>  <Synonyms>
N/A

>  <Target>
Dehydrogenase

>  <Form>
free base

>  <CAS>
1802088-50-1

>  <URL>
http://selleckchem.com/products/nct-501.html

$$$$
