Nebivolol HCl (R-067555).cdx
 OpenBabel08302522063D

 54 57  0  0  0  0  0  0  0  0999 V2000
   -9.4692    0.0021    6.9744 C   0  0  0  0  0  0  0  0  0  0  0  0
   -8.4051   -0.7386    7.4708 C   0  0  0  0  0  0  0  0  0  0  0  0
   -7.3813   -1.1847    6.6369 C   0  0  0  0  0  0  0  0  0  0  0  0
   -7.4231   -0.8870    5.2686 C   0  0  0  0  0  0  0  0  0  0  0  0
   -8.4803   -0.1088    4.7768 C   0  0  0  0  0  0  0  0  0  0  0  0
   -9.5067    0.3201    5.6203 C   0  0  0  0  0  0  0  0  0  0  0  0
   -6.3406   -1.3764    4.3498 C   0  0  0  0  0  0  0  0  0  0  0  0
   -6.7954   -1.2767    2.8959 C   0  0  0  0  0  0  0  0  0  0  0  0
   -7.4074    0.1099    2.6841 C   0  0  2  0  0  0  0  0  0  0  0  0
   -8.6069    0.2432    3.4637 O   0  0  0  0  0  0  0  0  0  0  0  0
   -8.3633   -1.0410    8.7777 F   0  0  0  0  0  0  0  0  0  0  0  0
   -7.7668    0.3892    1.2059 C   0  0  2  0  0  0  0  0  0  0  0  0
   -8.2379    1.8526    1.0084 C   0  0  0  0  0  0  0  0  0  0  0  0
   -7.2347    2.8801    1.3167 N   0  0  0  0  0  0  0  0  0  0  0  0
   -6.0518    2.7962    0.4531 C   0  0  0  0  0  0  0  0  0  0  0  0
   -5.0607    3.9398    0.7548 C   0  0  1  0  0  0  0  0  0  0  0  0
   -3.7348    3.7495   -0.0317 C   0  0  1  0  0  0  0  0  0  0  0  0
   -2.6884    4.8345    0.2271 C   0  0  0  0  0  0  0  0  0  0  0  0
   -2.2887    4.8269    1.6966 C   0  0  0  0  0  0  0  0  0  0  0  0
   -2.1205    3.4178    2.1943 C   0  0  0  0  0  0  0  0  0  0  0  0
   -2.5412    2.3217    1.4262 C   0  0  0  0  0  0  0  0  0  0  0  0
   -3.1596    2.4507    0.2090 O   0  0  0  0  0  0  0  0  0  0  0  0
   -1.5797    3.1842    3.4640 C   0  0  0  0  0  0  0  0  0  0  0  0
   -1.4326    1.8796    3.9262 C   0  0  0  0  0  0  0  0  0  0  0  0
   -1.8041    0.7929    3.1427 C   0  0  0  0  0  0  0  0  0  0  0  0
   -2.3572    1.0149    1.8832 C   0  0  0  0  0  0  0  0  0  0  0  0
   -8.8008   -0.4755    0.7141 O   0  0  0  0  0  0  0  0  0  0  0  0
   -0.9266    1.6674    5.1478 F   0  0  0  0  0  0  0  0  0  0  0  0
   -5.6439    5.2136    0.4492 O   0  0  0  0  0  0  0  0  0  0  0  0
  -10.2567    0.3294    7.6420 H   0  0  0  0  0  0  0  0  0  0  0  0
   -6.5688   -1.7646    7.0603 H   0  0  0  0  0  0  0  0  0  0  0  0
  -10.3282    0.9031    5.2163 H   0  0  0  0  0  0  0  0  0  0  0  0
   -5.4433   -0.7642    4.5028 H   0  0  0  0  0  0  0  0  0  0  0  0
   -6.0835   -2.4163    4.5799 H   0  0  0  0  0  0  0  0  0  0  0  0
   -5.9470   -1.4506    2.2251 H   0  0  0  0  0  0  0  0  0  0  0  0
   -7.5428   -2.0577    2.7082 H   0  0  0  0  0  0  0  0  0  0  0  0
   -6.6867    0.8707    3.0167 H   0  0  0  0  0  0  0  0  0  0  0  0
   -6.8945    0.1925    0.5744 H   0  0  0  0  0  0  0  0  0  0  0  0
   -8.6076    1.9871   -0.0157 H   0  0  0  0  0  0  0  0  0  0  0  0
   -9.1121    2.0301    1.6483 H   0  0  0  0  0  0  0  0  0  0  0  0
   -7.6519    3.8101    1.2497 H   0  0  0  0  0  0  0  0  0  0  0  0
   -5.5464    1.8429    0.6261 H   0  0  0  0  0  0  0  0  0  0  0  0
   -6.3620    2.8475   -0.5967 H   0  0  0  0  0  0  0  0  0  0  0  0
   -4.8668    3.9311    1.8334 H   0  0  0  0  0  0  0  0  0  0  0  0
   -3.9717    3.7829   -1.1032 H   0  0  0  0  0  0  0  0  0  0  0  0
   -3.0480    5.8249   -0.0701 H   0  0  0  0  0  0  0  0  0  0  0  0
   -1.7987    4.6150   -0.3794 H   0  0  0  0  0  0  0  0  0  0  0  0
   -3.0606    5.3254    2.2949 H   0  0  0  0  0  0  0  0  0  0  0  0
   -1.3567    5.3889    1.8238 H   0  0  0  0  0  0  0  0  0  0  0  0
   -1.2780    4.0088    4.1032 H   0  0  0  0  0  0  0  0  0  0  0  0
   -1.6691   -0.2146    3.5217 H   0  0  0  0  0  0  0  0  0  0  0  0
   -2.6615    0.1745    1.2656 H   0  0  0  0  0  0  0  0  0  0  0  0
   -8.5813   -1.3865    0.9675 H   0  0  0  0  0  0  0  0  0  0  0  0
   -6.1644    5.1199   -0.3669 H   0  0  0  0  0  0  0  0  0  0  0  0
  1  2  2  0  0  0  0
  1 30  1  0  0  0  0
  2  3  1  0  0  0  0
  2 11  1  0  0  0  0
  3  4  2  0  0  0  0
  3 31  1  0  0  0  0
  4  5  1  0  0  0  0
  4  7  1  0  0  0  0
  5  6  2  0  0  0  0
  6  1  1  0  0  0  0
  6 32  1  0  0  0  0
  7  8  1  0  0  0  0
  7 33  1  0  0  0  0
  7 34  1  0  0  0  0
  8 35  1  0  0  0  0
  8 36  1  0  0  0  0
  9  8  1  0  0  0  0
  9 10  1  0  0  0  0
  9 37  1  1  0  0  0
  9 12  1  0  0  0  0
 10  5  1  0  0  0  0
 12 38  1  6  0  0  0
 12 27  1  0  0  0  0
 12 13  1  0  0  0  0
 13 14  1  0  0  0  0
 13 39  1  0  0  0  0
 13 40  1  0  0  0  0
 14 15  1  0  0  0  0
 14 41  1  0  0  0  0
 15 16  1  0  0  0  0
 15 42  1  0  0  0  0
 15 43  1  0  0  0  0
 16 29  1  0  0  0  0
 16 44  1  1  0  0  0
 17 18  1  0  0  0  0
 17 45  1  6  0  0  0
 17 16  1  0  0  0  0
 18 19  1  0  0  0  0
 18 46  1  0  0  0  0
 18 47  1  0  0  0  0
 19 20  1  0  0  0  0
 19 48  1  0  0  0  0
 19 49  1  0  0  0  0
 20 21  2  0  0  0  0
 20 23  1  0  0  0  0
 21 22  1  0  0  0  0
 22 17  1  0  0  0  0
 23 24  2  0  0  0  0
 23 50  1  0  0  0  0
 24 25  1  0  0  0  0
 24 28  1  0  0  0  0
 25 26  2  0  0  0  0
 25 51  1  0  0  0  0
 26 21  1  0  0  0  0
 26 52  1  0  0  0  0
 27 53  1  0  0  0  0
 29 54  1  0  0  0  0
M  END
>  <Mol_ID>
1443

>  <Formula>
C22H26ClF2NO4

>  <MolWeight>
441.8959464

>  <Cat>
S1549

>  <Name>
Nebivolol hydrochloride (R-65824)

>  <Synonyms>
R-65824 hydrochloride

>  <Target>
Adrenergic Receptor

>  <Form>
Hydrochloride

>  <CAS>
152520-56-4

>  <URL>
http://selleckchem.com/products/Nebivolol(Bystolic).html

$$$$
