Nebivolol
 OpenBabel08302520343D

 54 57  0  0  0  0  0  0  0  0999 V2000
   -3.1386    3.2222    1.7801 O   0  0  0  0  0  0  0  0  0  0  0  0
   -5.4830    6.9862    7.8776 O   0  0  0  0  0  0  0  0  0  0  0  0
   -3.2557    3.1404    0.4177 C   0  0  0  0  0  0  0  0  0  0  0  0
   -6.3563    7.7407    8.6117 C   0  0  0  0  0  0  0  0  0  0  0  0
   -5.7687    6.7863    6.4713 C   0  0  1  0  0  0  0  0  0  0  0  0
   -3.1670    1.9445    2.4440 C   0  0  2  0  0  0  0  0  0  0  0  0
   -7.6382    8.1075    8.1683 C   0  0  0  0  0  0  0  0  0  0  0  0
   -2.8872    2.0036   -0.3122 C   0  0  0  0  0  0  0  0  0  0  0  0
   -6.3543    5.3775    6.1047 C   0  0  1  0  0  0  0  0  0  0  0  0
   -3.1351    2.2318    3.9837 C   0  0  1  0  0  0  0  0  0  0  0  0
   -8.5483    8.7048    9.0524 C   0  0  0  0  0  0  0  0  0  0  0  0
   -3.0964    2.0044   -1.6965 C   0  0  0  0  0  0  0  0  0  0  0  0
   -7.9795    7.9681    6.7164 C   0  0  0  0  0  0  0  0  0  0  0  0
   -2.3144    0.7998    0.3852 C   0  0  0  0  0  0  0  0  0  0  0  0
   -6.6668    7.9268    5.9353 C   0  0  0  0  0  0  0  0  0  0  0  0
   -2.0181    1.0947    1.8678 C   0  0  0  0  0  0  0  0  0  0  0  0
   -5.9301    8.2052    9.8677 C   0  0  0  0  0  0  0  0  0  0  0  0
   -3.7459    4.2879   -0.2235 C   0  0  0  0  0  0  0  0  0  0  0  0
   -4.3483    3.5459    5.8409 N   0  0  0  0  0  0  0  0  0  0  0  0
   -8.1209    9.1068   10.3126 C   0  0  0  0  0  0  0  0  0  0  0  0
   -3.6192    3.1409   -2.3244 C   0  0  0  0  0  0  0  0  0  0  0  0
   -3.9219    4.2821   -1.6005 C   0  0  0  0  0  0  0  0  0  0  0  0
   -6.8017    8.9114   10.7021 C   0  0  0  0  0  0  0  0  0  0  0  0
   -8.9767    9.7222   11.1382 F   0  0  0  0  0  0  0  0  0  0  0  0
   -3.8149    3.1228   -3.6476 F   0  0  0  0  0  0  0  0  0  0  0  0
   -1.8871    2.8146    4.3930 O   0  0  0  0  0  0  0  0  0  0  0  0
   -6.7653    5.3479    4.7260 O   0  0  0  0  0  0  0  0  0  0  0  0
   -5.5997    4.0443    6.4424 C   0  0  0  0  0  0  0  0  0  0  0  0
   -4.3331    3.1821    4.4156 C   0  0  0  0  0  0  0  0  0  0  0  0
   -4.8038    6.8782    5.9580 H   0  0  0  0  0  0  0  0  0  0  0  0
   -4.1248    1.4484    2.2280 H   0  0  0  0  0  0  0  0  0  0  0  0
   -7.2844    5.2878    6.6815 H   0  0  0  0  0  0  0  0  0  0  0  0
   -3.2212    1.2760    4.5150 H   0  0  0  0  0  0  0  0  0  0  0  0
   -9.5750    8.9029    8.7584 H   0  0  0  0  0  0  0  0  0  0  0  0
   -2.8537    1.1361   -2.3075 H   0  0  0  0  0  0  0  0  0  0  0  0
   -8.5975    7.0820    6.5497 H   0  0  0  0  0  0  0  0  0  0  0  0
   -8.5542    8.8454    6.3916 H   0  0  0  0  0  0  0  0  0  0  0  0
   -3.0387   -0.0210    0.3115 H   0  0  0  0  0  0  0  0  0  0  0  0
   -1.3966    0.4786   -0.1239 H   0  0  0  0  0  0  0  0  0  0  0  0
   -6.8623    7.8397    4.8644 H   0  0  0  0  0  0  0  0  0  0  0  0
   -6.1422    8.8850    6.0793 H   0  0  0  0  0  0  0  0  0  0  0  0
   -1.8780    0.1521    2.4071 H   0  0  0  0  0  0  0  0  0  0  0  0
   -1.0694    1.6480    1.9110 H   0  0  0  0  0  0  0  0  0  0  0  0
   -4.9028    8.0435   10.1819 H   0  0  0  0  0  0  0  0  0  0  0  0
   -3.9943    5.1605    0.3691 H   0  0  0  0  0  0  0  0  0  0  0  0
   -3.5209    4.0745    6.1018 H   0  0  0  0  0  0  0  0  0  0  0  0
   -4.3433    5.1413   -2.1092 H   0  0  0  0  0  0  0  0  0  0  0  0
   -6.4666    9.3109   11.6580 H   0  0  0  0  0  0  0  0  0  0  0  0
   -1.3548    2.9915    3.5994 H   0  0  0  0  0  0  0  0  0  0  0  0
   -6.0619    5.7628    4.1986 H   0  0  0  0  0  0  0  0  0  0  0  0
   -6.3374    3.2484    6.2638 H   0  0  0  0  0  0  0  0  0  0  0  0
   -5.4411    4.0415    7.5272 H   0  0  0  0  0  0  0  0  0  0  0  0
   -4.2667    4.1131    3.8464 H   0  0  0  0  0  0  0  0  0  0  0  0
   -5.2653    2.6738    4.1417 H   0  0  0  0  0  0  0  0  0  0  0  0
  2  5  1  0  0  0  0
  3  1  1  0  0  0  0
  4  2  1  0  0  0  0
  5 15  1  0  0  0  0
  5 30  1  6  0  0  0
  5  9  1  0  0  0  0
  6  1  1  0  0  0  0
  6 16  1  0  0  0  0
  6 31  1  6  0  0  0
  6 10  1  0  0  0  0
  7 13  1  0  0  0  0
  7  4  2  0  0  0  0
  8  3  2  0  0  0  0
  9 28  1  0  0  0  0
  9 27  1  0  0  0  0
  9 32  1  1  0  0  0
 10 33  1  1  0  0  0
 10 26  1  0  0  0  0
 11  7  1  0  0  0  0
 11 34  1  0  0  0  0
 12  8  1  0  0  0  0
 12 35  1  0  0  0  0
 13 15  1  0  0  0  0
 13 36  1  0  0  0  0
 13 37  1  0  0  0  0
 14 16  1  0  0  0  0
 14  8  1  0  0  0  0
 14 38  1  0  0  0  0
 14 39  1  0  0  0  0
 15 40  1  0  0  0  0
 15 41  1  0  0  0  0
 16 42  1  0  0  0  0
 16 43  1  0  0  0  0
 17  4  1  0  0  0  0
 17 44  1  0  0  0  0
 18  3  1  0  0  0  0
 18 45  1  0  0  0  0
 19 29  1  0  0  0  0
 19 46  1  0  0  0  0
 20 11  2  0  0  0  0
 21 22  1  0  0  0  0
 21 12  2  0  0  0  0
 22 18  2  0  0  0  0
 22 47  1  0  0  0  0
 23 17  2  0  0  0  0
 23 20  1  0  0  0  0
 23 48  1  0  0  0  0
 24 20  1  0  0  0  0
 25 21  1  0  0  0  0
 26 49  1  0  0  0  0
 27 50  1  0  0  0  0
 28 19  1  0  0  0  0
 28 51  1  0  0  0  0
 28 52  1  0  0  0  0
 29 10  1  0  0  0  0
 29 53  1  0  0  0  0
 29 54  1  0  0  0  0
M  END
>  <Mol_ID>
3384

>  <Formula>
C22H25F2NO4

>  <MolWeight>
405.4350064

>  <Cat>
S5739

>  <Name>
Nebivolol

>  <Synonyms>
Bystolic,R 065824

>  <Target>
Adrenergic Receptor

>  <Form>
Free Base

>  <CAS>
118457-14-0

>  <URL>
http://www.selleckchem.com/products/nebivolol.html

$$$$
