Necrosulfonamide.cdx
 OpenBabel08302520413D

 46 48  0  0  0  0  0  0  0  0999 V2000
    1.3795   -0.2165   -0.1492 C   0  0  0  0  0  0  0  0  0  0  0  0
    0.5801   -1.3699   -0.0901 C   0  0  0  0  0  0  0  0  0  0  0  0
   -0.7536   -1.2660    0.3149 C   0  0  0  0  0  0  0  0  0  0  0  0
   -1.2710   -0.0328    0.7013 C   0  0  0  0  0  0  0  0  0  0  0  0
   -0.4658    1.1027    0.6571 C   0  0  0  0  0  0  0  0  0  0  0  0
    0.8435    1.0385    0.1756 C   0  0  0  0  0  0  0  0  0  0  0  0
    1.6311    2.1934   -0.0573 N   0  0  0  0  0  0  0  0  0  0  0  0
    1.1818    3.4995    0.0226 C   0  0  0  0  0  0  0  0  0  0  0  0
    0.0733    3.8776    0.3849 O   0  0  0  0  0  0  0  0  0  0  0  0
    2.2035    4.5024   -0.3858 C   0  0  0  0  0  0  0  0  0  0  0  0
    1.8622    5.8019   -0.3322 C   0  0  0  0  0  0  0  0  0  0  0  0
    2.7645    6.8877   -0.5370 C   0  0  0  0  0  0  0  0  0  0  0  0
    2.4409    8.2375   -0.6026 C   0  0  0  0  0  0  0  0  0  0  0  0
    3.5860    9.0903   -0.6398 C   0  0  0  0  0  0  0  0  0  0  0  0
    4.7501    8.3571   -0.6247 C   0  0  0  0  0  0  0  0  0  0  0  0
    4.4733    6.6868   -0.6419 S   0  0  0  0  0  0  0  0  0  0  0  0
   -1.8686   -2.6432    0.1788 S   0  0  0  0  0  0  0  0  0  0  0  0
   -1.8479   -3.3395    1.7050 N   0  0  0  0  0  0  0  0  0  0  0  0
   -2.7089   -2.7421    2.6588 C   0  0  0  0  0  0  0  0  0  0  0  0
   -4.0297   -3.1657    2.8705 C   0  0  0  0  0  0  0  0  0  0  0  0
   -4.8104   -2.6228    3.8374 N   0  0  0  0  0  0  0  0  0  0  0  0
   -4.2309   -1.6352    4.5580 C   0  0  0  0  0  0  0  0  0  0  0  0
   -2.9347   -1.2008    4.3222 C   0  0  0  0  0  0  0  0  0  0  0  0
   -2.1461   -1.7380    3.3621 N   0  0  0  0  0  0  0  0  0  0  0  0
   -4.5163   -4.2035    2.0984 O   0  0  0  0  0  0  0  0  0  0  0  0
   -5.8403   -4.5902    2.4577 C   0  0  0  0  0  0  0  0  0  0  0  0
   -3.1921   -2.1378   -0.1050 O   0  0  0  0  0  0  0  0  0  0  0  0
   -1.2468   -3.6126   -0.7020 O   0  0  0  0  0  0  0  0  0  0  0  0
    6.0935    8.8694   -0.5774 N   0  3  0  0  0  0  0  0  0  0  0  0
    6.2080   10.0996   -0.4966 O   0  0  0  0  0  0  0  0  0  0  0  0
    7.0323    8.0629   -0.6096 O   0  5  0  0  0  0  0  0  0  0  0  0
    2.4067   -0.3140   -0.4927 H   0  0  0  0  0  0  0  0  0  0  0  0
    0.9937   -2.3290   -0.3943 H   0  0  0  0  0  0  0  0  0  0  0  0
   -2.3065    0.0633    1.0166 H   0  0  0  0  0  0  0  0  0  0  0  0
   -0.9158    2.0328    0.9850 H   0  0  0  0  0  0  0  0  0  0  0  0
    2.5640    2.0290   -0.4113 H   0  0  0  0  0  0  0  0  0  0  0  0
    3.1869    4.1522   -0.6638 H   0  0  0  0  0  0  0  0  0  0  0  0
    0.8420    6.0733   -0.0571 H   0  0  0  0  0  0  0  0  0  0  0  0
    1.4199    8.6051   -0.5704 H   0  0  0  0  0  0  0  0  0  0  0  0
    3.5474   10.1740   -0.6413 H   0  0  0  0  0  0  0  0  0  0  0  0
   -1.9658   -4.3450    1.6063 H   0  0  0  0  0  0  0  0  0  0  0  0
   -4.8391   -1.2013    5.3444 H   0  0  0  0  0  0  0  0  0  0  0  0
   -2.4884   -0.4095    4.9150 H   0  0  0  0  0  0  0  0  0  0  0  0
   -5.8430   -5.0711    3.4420 H   0  0  0  0  0  0  0  0  0  0  0  0
   -6.5409   -3.7475    2.4318 H   0  0  0  0  0  0  0  0  0  0  0  0
   -6.1859   -5.3253    1.7246 H   0  0  0  0  0  0  0  0  0  0  0  0
  1  2  2  0  0  0  0
  1 32  1  0  0  0  0
  2  3  1  0  0  0  0
  2 33  1  0  0  0  0
  3  4  2  0  0  0  0
  3 17  1  0  0  0  0
  4  5  1  0  0  0  0
  4 34  1  0  0  0  0
  5  6  2  0  0  0  0
  5 35  1  0  0  0  0
  6  1  1  0  0  0  0
  6  7  1  0  0  0  0
  7  8  1  0  0  0  0
  7 36  1  0  0  0  0
  8  9  2  0  0  0  0
  8 10  1  0  0  0  0
 10 11  2  0  0  0  0
 10 37  1  0  0  0  0
 11 12  1  0  0  0  0
 11 38  1  0  0  0  0
 12 13  2  0  0  0  0
 13 14  1  0  0  0  0
 13 39  1  0  0  0  0
 14 15  2  0  0  0  0
 14 40  1  0  0  0  0
 15 16  1  0  0  0  0
 15 29  1  0  0  0  0
 16 12  1  0  0  0  0
 17 18  1  0  0  0  0
 17 27  2  0  0  0  0
 17 28  2  0  0  0  0
 18 19  1  0  0  0  0
 18 41  1  0  0  0  0
 19 20  2  0  0  0  0
 20 21  1  0  0  0  0
 20 25  1  0  0  0  0
 21 22  2  0  0  0  0
 22 23  1  0  0  0  0
 22 42  1  0  0  0  0
 23 24  2  0  0  0  0
 23 43  1  0  0  0  0
 24 19  1  0  0  0  0
 25 26  1  0  0  0  0
 26 44  1  0  0  0  0
 26 45  1  0  0  0  0
 26 46  1  0  0  0  0
 29 30  2  0  0  0  0
 29 31  1  0  0  0  0
M  CHG  2  29   1  31  -1
M  END
>  <Mol_ID>
3958

>  <Formula>
C18H15N5O6S2

>  <MolWeight>
461.4716

>  <Cat>
S8251

>  <Name>
Necrosulfonamide

>  <Synonyms>
N/A

>  <Target>
Mixed Lineage Kinase

>  <Form>
free base

>  <CAS>
1360614-48-7

>  <URL>
http://selleckchem.com/products/necrosulfonamide.html

$$$$
