Neoliquiritin
 OpenBabel08302521503D

 52 55  0  0  1  0  0  0  0  0999 V2000
   10.1655    0.5936   -5.1721 O   0  0  0  0  0  0  0  0  0  0  0  0
    5.6247    0.6399   -0.7213 O   0  0  0  0  0  0  0  0  0  0  0  0
    4.2654    0.9051    1.8456 O   0  0  0  0  0  0  0  0  0  0  0  0
   13.1261    3.7151    0.7115 O   0  0  0  0  0  0  0  0  0  0  0  0
    4.8341   -4.0314   -0.9062 C   0  0  0  0  0  0  0  0  0  0  0  0
    6.0745   -4.1254   -1.6089 O   0  0  0  0  0  0  0  0  0  0  0  0
    2.4231   -1.2761    2.4414 O   0  0  0  0  0  0  0  0  0  0  0  0
    3.3551   -3.8846    1.6116 O   0  0  0  0  0  0  0  0  0  0  0  0
    8.9635    0.2592   -3.1749 C   0  0  0  0  0  0  0  0  0  0  0  0
    8.9552   -0.4066   -1.9539 C   0  0  0  0  0  0  0  0  0  0  0  0
   10.1149    0.0466   -4.0731 C   0  0  0  0  0  0  0  0  0  0  0  0
    7.8922    1.0772   -3.5423 C   0  0  0  0  0  0  0  0  0  0  0  0
    9.9662   -1.2137   -1.5071 O   0  0  0  0  0  0  0  0  0  0  0  0
    7.8589   -0.2828   -1.1068 C   0  0  0  0  0  0  0  0  0  0  0  0
   11.1781   -0.9005   -3.5904 C   0  0  0  0  0  0  0  0  0  0  0  0
    6.7950    1.2033   -2.6830 C   0  0  0  0  0  0  0  0  0  0  0  0
   11.2515   -0.8858   -2.0675 C   0  0  1  0  0  0  0  0  0  0  0  0
    6.7619    0.5003   -1.4765 C   0  0  0  0  0  0  0  0  0  0  0  0
   11.8103    0.3445   -1.3625 C   0  0  0  0  0  0  0  0  0  0  0  0
   11.9741    0.3016    0.0362 C   0  0  0  0  0  0  0  0  0  0  0  0
   12.1317    1.5364   -2.0301 C   0  0  0  0  0  0  0  0  0  0  0  0
   12.4210    1.4207    0.7498 C   0  0  0  0  0  0  0  0  0  0  0  0
   12.5684    2.6552   -1.3185 C   0  0  0  0  0  0  0  0  0  0  0  0
   12.7063    2.5931    0.0632 C   0  0  0  0  0  0  0  0  0  0  0  0
    5.3081   -0.4944    0.1006 C   0  0  2  0  0  0  0  0  0  0  0  0
    5.1016   -1.6525   -0.7171 O   0  0  0  0  0  0  0  0  0  0  0  0
    4.0473   -0.1924    0.9420 C   0  0  1  0  0  0  0  0  0  0  0  0
    4.8789   -2.8380    0.0533 C   0  0  1  0  0  0  0  0  0  0  0  0
    3.6601   -1.4508    1.7415 C   0  0  2  0  0  0  0  0  0  0  0  0
    3.5789   -2.6996    0.8467 C   0  0  2  0  0  0  0  0  0  0  0  0
    4.9844    0.6803    2.4625 H   0  0  0  0  0  0  0  0  0  0  0  0
   13.1665    3.5284    1.6636 H   0  0  0  0  0  0  0  0  0  0  0  0
    4.6821   -4.9729   -0.3700 H   0  0  0  0  0  0  0  0  0  0  0  0
    4.0413   -3.9149   -1.6523 H   0  0  0  0  0  0  0  0  0  0  0  0
    6.1959   -3.2589   -2.0476 H   0  0  0  0  0  0  0  0  0  0  0  0
    1.7562   -0.9476    1.8115 H   0  0  0  0  0  0  0  0  0  0  0  0
    3.4965   -3.6830    2.5556 H   0  0  0  0  0  0  0  0  0  0  0  0
    7.9025    1.6020   -4.4951 H   0  0  0  0  0  0  0  0  0  0  0  0
    7.9067   -0.8032   -0.1570 H   0  0  0  0  0  0  0  0  0  0  0  0
   10.8926   -1.8992   -3.9445 H   0  0  0  0  0  0  0  0  0  0  0  0
   12.1426   -0.6339   -4.0316 H   0  0  0  0  0  0  0  0  0  0  0  0
    5.9524    1.8289   -2.9708 H   0  0  0  0  0  0  0  0  0  0  0  0
   11.9126   -1.7168   -1.7837 H   0  0  0  0  0  0  0  0  0  0  0  0
   11.7328   -0.6084    0.5846 H   0  0  0  0  0  0  0  0  0  0  0  0
   12.0401    1.6350   -3.1086 H   0  0  0  0  0  0  0  0  0  0  0  0
   12.5273    1.3558    1.8272 H   0  0  0  0  0  0  0  0  0  0  0  0
   12.7879    3.5803   -1.8431 H   0  0  0  0  0  0  0  0  0  0  0  0
    6.1277   -0.6624    0.8106 H   0  0  0  0  0  0  0  0  0  0  0  0
    3.2216    0.1095    0.2890 H   0  0  0  0  0  0  0  0  0  0  0  0
    5.7350   -2.9829    0.7262 H   0  0  0  0  0  0  0  0  0  0  0  0
    4.4028   -1.6188    2.5318 H   0  0  0  0  0  0  0  0  0  0  0  0
    2.7262   -2.5884    0.1650 H   0  0  0  0  0  0  0  0  0  0  0  0
  1 11  2  0  0  0  0
  2 18  1  0  0  0  0
  3 31  1  0  0  0  0
  4 24  1  0  0  0  0
  4 32  1  0  0  0  0
  5  6  1  0  0  0  0
  5 33  1  0  0  0  0
  5 34  1  0  0  0  0
  6 35  1  0  0  0  0
  7 36  1  0  0  0  0
  8 37  1  0  0  0  0
  9 10  2  0  0  0  0
  9 11  1  0  0  0  0
  9 12  1  0  0  0  0
 10 13  1  0  0  0  0
 10 14  1  0  0  0  0
 11 15  1  0  0  0  0
 12 16  2  0  0  0  0
 12 38  1  0  0  0  0
 13 17  1  0  0  0  0
 14 18  2  0  0  0  0
 14 39  1  0  0  0  0
 15 17  1  0  0  0  0
 15 40  1  0  0  0  0
 15 41  1  0  0  0  0
 16 18  1  0  0  0  0
 16 42  1  0  0  0  0
 17 43  1  1  0  0  0
 17 19  1  0  0  0  0
 19 20  2  0  0  0  0
 19 21  1  0  0  0  0
 20 22  1  0  0  0  0
 20 44  1  0  0  0  0
 21 23  2  0  0  0  0
 21 45  1  0  0  0  0
 22 24  2  0  0  0  0
 22 46  1  0  0  0  0
 23 24  1  0  0  0  0
 23 47  1  0  0  0  0
 25 26  1  0  0  0  0
 25 27  1  0  0  0  0
 25 48  1  1  0  0  0
 25  2  1  0  0  0  0
 26 28  1  0  0  0  0
 27  3  1  0  0  0  0
 27 29  1  0  0  0  0
 27 49  1  6  0  0  0
 28  5  1  0  0  0  0
 28 30  1  0  0  0  0
 28 50  1  1  0  0  0
 29  7  1  0  0  0  0
 29 30  1  0  0  0  0
 29 51  1  1  0  0  0
 30  8  1  0  0  0  0
 30 52  1  6  0  0  0
M  END
>  <Mol_ID>
9875

>  <Formula>
C21H22O9

>  <MolWeight>
418.39398

>  <Cat>
E2628

>  <Name>
Neoliquiritin

>  <Synonyms>
NA

>  <Target>
anti-inflammatory

>  <Form>
Free Base

>  <CAS>
5088-75-5

>  <URL>
https://www.selleckchem.com/products/neoliquiritin.html

$$$$
