NEOTHYLLINE (dyphylline).cdx
 OpenBabel08302520013D

 32 33  0  0  0  0  0  0  0  0999 V2000
   -2.1892    0.5299    0.2056 N   0  0  0  0  0  0  0  0  0  0  0  0
   -2.1801   -0.8697    0.0744 C   0  0  0  0  0  0  0  0  0  0  0  0
   -0.9316   -1.4976    0.0354 N   0  0  0  0  0  0  0  0  0  0  0  0
    0.2099   -0.7317    0.0455 C   0  0  0  0  0  0  0  0  0  0  0  0
    0.1615    0.6228    0.1726 C   0  0  0  0  0  0  0  0  0  0  0  0
   -1.0553    1.3364    0.3251 C   0  0  0  0  0  0  0  0  0  0  0  0
   -1.0968    2.5528    0.4878 O   0  0  0  0  0  0  0  0  0  0  0  0
   -3.2307   -1.5109   -0.0096 O   0  0  0  0  0  0  0  0  0  0  0  0
   -3.4593    1.2285    0.1778 C   0  0  0  0  0  0  0  0  0  0  0  0
   -0.8397   -2.9419   -0.0793 C   0  0  0  0  0  0  0  0  0  0  0  0
    1.4874   -1.1806   -0.0960 N   0  0  0  0  0  0  0  0  0  0  0  0
    2.2260   -0.0885   -0.0842 C   0  0  0  0  0  0  0  0  0  0  0  0
    1.4589    1.0405    0.0567 N   0  0  0  0  0  0  0  0  0  0  0  0
    1.9538    2.3999    0.0703 C   0  0  0  0  0  0  0  0  0  0  0  0
    2.0477    3.0585   -1.3124 C   0  0  3  0  0  0  0  0  0  0  0  0
    0.7158    3.2242   -2.0546 C   0  0  0  0  0  0  0  0  0  0  0  0
   -0.1108    4.1606   -1.3642 O   0  0  0  0  0  0  0  0  0  0  0  0
    2.6155    4.3676   -1.1358 O   0  0  0  0  0  0  0  0  0  0  0  0
   -3.5564    1.8421    1.0785 H   0  0  0  0  0  0  0  0  0  0  0  0
   -3.4638    1.8976   -0.6911 H   0  0  0  0  0  0  0  0  0  0  0  0
   -4.3145    0.5543    0.1060 H   0  0  0  0  0  0  0  0  0  0  0  0
   -0.3253   -3.1962   -1.0112 H   0  0  0  0  0  0  0  0  0  0  0  0
   -0.2727   -3.3300    0.7727 H   0  0  0  0  0  0  0  0  0  0  0  0
   -1.8256   -3.4138   -0.0838 H   0  0  0  0  0  0  0  0  0  0  0  0
    3.3049   -0.0582   -0.1824 H   0  0  0  0  0  0  0  0  0  0  0  0
    1.3462    2.9929    0.7614 H   0  0  0  0  0  0  0  0  0  0  0  0
    2.9541    2.3739    0.5234 H   0  0  0  0  0  0  0  0  0  0  0  0
    2.7365    2.4860   -1.9430 H   0  0  0  0  0  0  0  0  0  0  0  0
    0.9031    3.6595   -3.0419 H   0  0  0  0  0  0  0  0  0  0  0  0
    0.1827    2.2810   -2.2037 H   0  0  0  0  0  0  0  0  0  0  0  0
   -0.5636    3.6892   -0.6300 H   0  0  0  0  0  0  0  0  0  0  0  0
    1.8524    4.9756   -1.0283 H   0  0  0  0  0  0  0  0  0  0  0  0
  1  2  1  0  0  0  0
  1  9  1  0  0  0  0
  2  3  1  0  0  0  0
  2  8  2  0  0  0  0
  3  4  1  0  0  0  0
  3 10  1  0  0  0  0
  4  5  2  0  0  0  0
  4 11  1  0  0  0  0
  5  6  1  0  0  0  0
  6  1  1  0  0  0  0
  6  7  2  0  0  0  0
  9 19  1  0  0  0  0
  9 20  1  0  0  0  0
  9 21  1  0  0  0  0
 10 22  1  0  0  0  0
 10 23  1  0  0  0  0
 10 24  1  0  0  0  0
 11 12  2  0  0  0  0
 12 13  1  0  0  0  0
 12 25  1  0  0  0  0
 13  5  1  0  0  0  0
 13 14  1  0  0  0  0
 14 15  1  0  0  0  0
 14 26  1  0  0  0  0
 14 27  1  0  0  0  0
 15 16  1  0  0  0  0
 15 18  1  0  0  0  0
 15 28  1  0  0  0  0
 16 17  1  0  0  0  0
 16 29  1  0  0  0  0
 16 30  1  0  0  0  0
 17 31  1  0  0  0  0
 18 32  1  0  0  0  0
M  END
>  <Mol_ID>
294

>  <Formula>
C10H14N4O4

>  <MolWeight>
254.24256

>  <Cat>
S1504

>  <Name>
Dyphylline

>  <Synonyms>
Diprophylline

>  <Target>
PDE

>  <Form>
free base

>  <CAS>
479-18-5

>  <URL>
http://selleckchem.com/products/Dyphylline(Dilor).html

$$$$
