Nerolidol
 OpenBabel08302521373D

 42 41  0  0  0  0  0  0  0  0999 V2000
    0.9609   -0.0678   -0.1357 C   0  0  0  0  0  0  0  0  0  0  0  0
    0.2273    0.5573    1.0228 C   0  0  0  0  0  0  0  0  0  0  0  0
    0.4517   -0.8914   -1.0749 C   0  0  0  0  0  0  0  0  0  0  0  0
    0.2663    2.0944    1.0406 C   0  0  0  0  0  0  0  0  0  0  0  0
    1.2533   -1.4561   -2.2326 C   0  0  0  0  0  0  0  0  0  0  0  0
   -0.9983   -1.3168   -1.1071 C   0  0  0  0  0  0  0  0  0  0  0  0
   -0.5773    2.8414   -0.0192 C   0  0  3  0  0  0  0  0  0  0  0  0
    2.7156   -1.0063   -2.4097 C   0  0  0  0  0  0  0  0  0  0  0  0
   -0.5036    4.3335    0.2640 C   0  0  0  0  0  0  0  0  0  0  0  0
   -0.1048    2.6289   -1.4607 C   0  0  0  0  0  0  0  0  0  0  0  0
   -1.9288    2.3964    0.0842 O   0  0  0  0  0  0  0  0  0  0  0  0
    3.2849   -1.5874   -3.6810 C   0  0  0  0  0  0  0  0  0  0  0  0
   -1.5203    5.1798    0.4733 C   0  0  0  0  0  0  0  0  0  0  0  0
    3.9116   -0.9176   -4.6672 C   0  0  0  0  0  0  0  0  0  0  0  0
    4.3235   -1.6198   -5.9332 C   0  0  0  0  0  0  0  0  0  0  0  0
    4.2376    0.5481   -4.6042 C   0  0  0  0  0  0  0  0  0  0  0  0
    2.0174    0.1950   -0.1718 H   0  0  0  0  0  0  0  0  0  0  0  0
   -0.8044    0.2091    1.1133 H   0  0  0  0  0  0  0  0  0  0  0  0
    0.7295    0.2039    1.9335 H   0  0  0  0  0  0  0  0  0  0  0  0
   -0.1098    2.3875    2.0331 H   0  0  0  0  0  0  0  0  0  0  0  0
    1.3094    2.4314    0.9977 H   0  0  0  0  0  0  0  0  0  0  0  0
    1.2349   -2.5548   -2.1505 H   0  0  0  0  0  0  0  0  0  0  0  0
    0.7173   -1.2066   -3.1611 H   0  0  0  0  0  0  0  0  0  0  0  0
   -1.1060   -2.3152   -0.6719 H   0  0  0  0  0  0  0  0  0  0  0  0
   -1.6630   -0.6300   -0.5762 H   0  0  0  0  0  0  0  0  0  0  0  0
   -1.3679   -1.3516   -2.1378 H   0  0  0  0  0  0  0  0  0  0  0  0
    2.7620    0.0867   -2.4251 H   0  0  0  0  0  0  0  0  0  0  0  0
    3.3192   -1.3530   -1.5627 H   0  0  0  0  0  0  0  0  0  0  0  0
    0.5049    4.7470    0.2884 H   0  0  0  0  0  0  0  0  0  0  0  0
   -0.2595    1.6030   -1.7964 H   0  0  0  0  0  0  0  0  0  0  0  0
   -0.6950    3.2378   -2.1575 H   0  0  0  0  0  0  0  0  0  0  0  0
    0.9503    2.8939   -1.5899 H   0  0  0  0  0  0  0  0  0  0  0  0
   -2.4247    2.8256   -0.6315 H   0  0  0  0  0  0  0  0  0  0  0  0
    3.1279   -2.6588   -3.8009 H   0  0  0  0  0  0  0  0  0  0  0  0
   -1.3298    6.2333    0.6575 H   0  0  0  0  0  0  0  0  0  0  0  0
   -2.5562    4.8569    0.4715 H   0  0  0  0  0  0  0  0  0  0  0  0
    3.9655   -1.0650   -6.8072 H   0  0  0  0  0  0  0  0  0  0  0  0
    5.4136   -1.6978   -5.9902 H   0  0  0  0  0  0  0  0  0  0  0  0
    3.9055   -2.6304   -5.9984 H   0  0  0  0  0  0  0  0  0  0  0  0
    3.3355    1.1502   -4.7476 H   0  0  0  0  0  0  0  0  0  0  0  0
    4.6986    0.8088   -3.6459 H   0  0  0  0  0  0  0  0  0  0  0  0
    4.9543    0.8261   -5.3852 H   0  0  0  0  0  0  0  0  0  0  0  0
  1  2  1  0  0  0  0
  1  3  2  0  0  0  0
  1 17  1  0  0  0  0
  2  4  1  0  0  0  0
  2 18  1  0  0  0  0
  2 19  1  0  0  0  0
  3  5  1  0  0  0  0
  3  6  1  0  0  0  0
  4  7  1  0  0  0  0
  4 20  1  0  0  0  0
  4 21  1  0  0  0  0
  5  8  1  0  0  0  0
  5 22  1  0  0  0  0
  5 23  1  0  0  0  0
  6 24  1  0  0  0  0
  6 25  1  0  0  0  0
  6 26  1  0  0  0  0
  7  9  1  0  0  0  0
  7 10  1  0  0  0  0
  7 11  1  0  0  0  0
  8 12  1  0  0  0  0
  8 27  1  0  0  0  0
  8 28  1  0  0  0  0
  9 13  2  0  0  0  0
  9 29  1  0  0  0  0
 10 30  1  0  0  0  0
 10 31  1  0  0  0  0
 10 32  1  0  0  0  0
 11 33  1  0  0  0  0
 12 14  2  0  0  0  0
 12 34  1  0  0  0  0
 13 35  1  0  0  0  0
 13 36  1  0  0  0  0
 14 15  1  0  0  0  0
 14 16  1  0  0  0  0
 15 37  1  0  0  0  0
 15 38  1  0  0  0  0
 15 39  1  0  0  0  0
 16 40  1  0  0  0  0
 16 41  1  0  0  0  0
 16 42  1  0  0  0  0
M  END
>  <Mol_ID>
7381

>  <Formula>
C15H26O

>  <MolWeight>
222.36634

>  <Cat>
E4438

>  <Name>
Nerolidol

>  <Target>
Anti-infection

>  <Form>
Free base

>  <CAS>
40716-66-3

>  <URL>
https://www.selleckchem.com/products/nerolidol.html

$$$$
