Neticonazole
 OpenBabel08302521303D

 43 44  0  0  0  0  0  0  0  0999 V2000
    1.8065    4.6536    3.4492 S   0  0  0  0  0  0  0  0  0  0  0  0
    2.4010    2.1808   -0.2725 O   0  0  0  0  0  0  0  0  0  0  0  0
    1.7498    0.6157    2.8867 N   0  0  0  0  0  0  0  0  0  0  0  0
    2.0683   -1.6226    2.9908 N   0  0  0  0  0  0  0  0  0  0  0  0
    2.8358    2.8645   -2.6666 C   0  0  0  0  0  0  0  0  0  0  0  0
    2.1060    3.2468   -3.9786 C   0  0  0  0  0  0  0  0  0  0  0  0
    1.8521    4.7223   -4.3107 C   0  0  0  0  0  0  0  0  0  0  0  0
    2.1187    3.1302   -1.3312 C   0  0  0  0  0  0  0  0  0  0  0  0
    3.4962    2.3396    0.5447 C   0  0  0  0  0  0  0  0  0  0  0  0
    3.3489    2.2499    1.9514 C   0  0  0  0  0  0  0  0  0  0  0  0
    0.7049    5.3676   -3.5529 C   0  0  0  0  0  0  0  0  0  0  0  0
    2.0530    1.9933    2.6325 C   0  0  0  0  0  0  0  0  0  0  0  0
    4.7904    2.2667    0.0218 C   0  0  0  0  0  0  0  0  0  0  0  0
    4.4791    2.1356    2.7910 C   0  0  0  0  0  0  0  0  0  0  0  0
    5.8978    2.0752    0.8671 C   0  0  0  0  0  0  0  0  0  0  0  0
    5.7438    2.0012    2.2465 C   0  0  0  0  0  0  0  0  0  0  0  0
    1.3369    3.0007    3.1953 C   0  0  0  0  0  0  0  0  0  0  0  0
    0.7106    0.0636    3.6189 C   0  0  0  0  0  0  0  0  0  0  0  0
    2.5118   -0.4863    2.5085 C   0  0  0  0  0  0  0  0  0  0  0  0
    0.9498   -1.2877    3.6894 C   0  0  0  0  0  0  0  0  0  0  0  0
    1.9879    5.3805    1.8172 C   0  0  0  0  0  0  0  0  0  0  0  0
    3.8075    3.3708   -2.6577 H   0  0  0  0  0  0  0  0  0  0  0  0
    3.0524    1.7907   -2.7338 H   0  0  0  0  0  0  0  0  0  0  0  0
    2.7379    2.8705   -4.7949 H   0  0  0  0  0  0  0  0  0  0  0  0
    1.1651    2.6896   -4.0571 H   0  0  0  0  0  0  0  0  0  0  0  0
    2.7642    5.3187   -4.1998 H   0  0  0  0  0  0  0  0  0  0  0  0
    1.5908    4.7697   -5.3801 H   0  0  0  0  0  0  0  0  0  0  0  0
    1.0412    3.0210   -1.5060 H   0  0  0  0  0  0  0  0  0  0  0  0
    2.2817    4.1541   -0.9833 H   0  0  0  0  0  0  0  0  0  0  0  0
    1.0073    5.6376   -2.5375 H   0  0  0  0  0  0  0  0  0  0  0  0
    0.3900    6.2882   -4.0592 H   0  0  0  0  0  0  0  0  0  0  0  0
   -0.1665    4.7078   -3.5009 H   0  0  0  0  0  0  0  0  0  0  0  0
    4.9603    2.2410   -1.0465 H   0  0  0  0  0  0  0  0  0  0  0  0
    4.3494    2.0193    3.8665 H   0  0  0  0  0  0  0  0  0  0  0  0
    6.8870    1.9202    0.4395 H   0  0  0  0  0  0  0  0  0  0  0  0
    6.5874    1.7796    2.8965 H   0  0  0  0  0  0  0  0  0  0  0  0
    0.4318    2.7543    3.7342 H   0  0  0  0  0  0  0  0  0  0  0  0
   -0.0660    0.6595    4.0686 H   0  0  0  0  0  0  0  0  0  0  0  0
    3.4146   -0.3885    1.9187 H   0  0  0  0  0  0  0  0  0  0  0  0
    0.3760   -2.0393    4.2151 H   0  0  0  0  0  0  0  0  0  0  0  0
    1.9659    6.4711    1.9246 H   0  0  0  0  0  0  0  0  0  0  0  0
    2.9550    5.1205    1.3835 H   0  0  0  0  0  0  0  0  0  0  0  0
    1.1787    5.0914    1.1443 H   0  0  0  0  0  0  0  0  0  0  0  0
  1 17  1  0  0  0  0
  1 21  1  0  0  0  0
  2  8  1  0  0  0  0
  2  9  1  0  0  0  0
  3 12  1  0  0  0  0
  3 18  1  0  0  0  0
  3 19  1  0  0  0  0
  4 19  2  0  0  0  0
  4 20  1  0  0  0  0
  5  6  1  0  0  0  0
  5  8  1  0  0  0  0
  5 22  1  0  0  0  0
  5 23  1  0  0  0  0
  6  7  1  0  0  0  0
  6 24  1  0  0  0  0
  6 25  1  0  0  0  0
  7 11  1  0  0  0  0
  7 26  1  0  0  0  0
  7 27  1  0  0  0  0
  8 28  1  0  0  0  0
  8 29  1  0  0  0  0
  9 10  2  0  0  0  0
  9 13  1  0  0  0  0
 10 12  1  0  0  0  0
 10 14  1  0  0  0  0
 11 30  1  0  0  0  0
 11 31  1  0  0  0  0
 11 32  1  0  0  0  0
 12 17  2  0  0  0  0
 13 15  2  0  0  0  0
 13 33  1  0  0  0  0
 14 16  2  0  0  0  0
 14 34  1  0  0  0  0
 15 16  1  0  0  0  0
 15 35  1  0  0  0  0
 16 36  1  0  0  0  0
 17 37  1  0  0  0  0
 18 20  2  0  0  0  0
 18 38  1  0  0  0  0
 19 39  1  0  0  0  0
 20 40  1  0  0  0  0
 21 41  1  0  0  0  0
 21 42  1  0  0  0  0
 21 43  1  0  0  0  0
M  END
>  <Mol_ID>
5698

>  <Formula>
C17H22N2OS

>  <MolWeight>
302.43438

>  <Cat>
S5080

>  <Name>
Neticonazole

>  <Synonyms>
SS717

>  <Target>
Fungal

>  <Form>
Free Base

>  <CAS>
130726-68-0

>  <URL>
http://www.selleckchem.com/products/neticonazole.html

$$$$
