NEURONTIN (gabapentin).cdx
 OpenBabel08302521383D

 29 29  0  0  0  0  0  0  0  0999 V2000
   -1.4382    0.2900   -0.1308 C   0  0  0  0  0  0  0  0  0  0  0  0
   -1.0318   -1.0801    0.3941 C   0  0  0  0  0  0  0  0  0  0  0  0
    0.3535   -1.4861   -0.0902 C   0  0  0  0  0  0  0  0  0  0  0  0
    1.4083   -0.4238    0.2244 C   0  0  0  0  0  0  0  0  0  0  0  0
    1.0543    0.9976   -0.2878 C   0  0  0  0  0  0  0  0  0  0  0  0
   -0.3870    1.3501    0.1947 C   0  0  0  0  0  0  0  0  0  0  0  0
    1.9965    2.0520    0.3560 C   0  0  0  0  0  0  0  0  0  0  0  0
    1.0846    1.0862   -1.8459 C   0  0  0  0  0  0  0  0  0  0  0  0
    2.3567    0.7308   -2.4596 N   0  0  0  0  0  0  0  0  0  0  0  0
    3.4739    1.9074    0.0734 C   0  0  0  0  0  0  0  0  0  0  0  0
    4.1272    1.1088    0.9430 O   0  0  0  0  0  0  0  0  0  0  0  0
    4.0404    2.4714   -0.8533 O   0  0  0  0  0  0  0  0  0  0  0  0
   -1.6079    0.2389   -1.2117 H   0  0  0  0  0  0  0  0  0  0  0  0
   -2.3955    0.5813    0.3172 H   0  0  0  0  0  0  0  0  0  0  0  0
   -1.0460   -1.0665    1.4916 H   0  0  0  0  0  0  0  0  0  0  0  0
   -1.7686   -1.8294    0.0793 H   0  0  0  0  0  0  0  0  0  0  0  0
    0.6390   -2.4290    0.3919 H   0  0  0  0  0  0  0  0  0  0  0  0
    0.3272   -1.6826   -1.1678 H   0  0  0  0  0  0  0  0  0  0  0  0
    1.5312   -0.3902    1.3156 H   0  0  0  0  0  0  0  0  0  0  0  0
    2.3711   -0.7566   -0.1807 H   0  0  0  0  0  0  0  0  0  0  0  0
   -0.7028    2.3096   -0.2344 H   0  0  0  0  0  0  0  0  0  0  0  0
   -0.3802    1.4905    1.2843 H   0  0  0  0  0  0  0  0  0  0  0  0
    1.7114    3.0601    0.0186 H   0  0  0  0  0  0  0  0  0  0  0  0
    1.8672    2.0763    1.4455 H   0  0  0  0  0  0  0  0  0  0  0  0
    0.3311    0.4200   -2.2768 H   0  0  0  0  0  0  0  0  0  0  0  0
    0.8138    2.1006   -2.1628 H   0  0  0  0  0  0  0  0  0  0  0  0
    2.2652    0.7716   -3.4755 H   0  0  0  0  0  0  0  0  0  0  0  0
    3.0696    1.4400   -2.2482 H   0  0  0  0  0  0  0  0  0  0  0  0
    3.5519    0.6959    1.6129 H   0  0  0  0  0  0  0  0  0  0  0  0
  1  2  1  0  0  0  0
  1 13  1  0  0  0  0
  1 14  1  0  0  0  0
  2  3  1  0  0  0  0
  2 15  1  0  0  0  0
  2 16  1  0  0  0  0
  3  4  1  0  0  0  0
  3 17  1  0  0  0  0
  3 18  1  0  0  0  0
  4  5  1  0  0  0  0
  4 19  1  0  0  0  0
  4 20  1  0  0  0  0
  5  6  1  0  0  0  0
  5  7  1  0  0  0  0
  5  8  1  0  0  0  0
  6  1  1  0  0  0  0
  6 21  1  0  0  0  0
  6 22  1  0  0  0  0
  7 10  1  0  0  0  0
  7 23  1  0  0  0  0
  7 24  1  0  0  0  0
  8  9  1  0  0  0  0
  8 25  1  0  0  0  0
  8 26  1  0  0  0  0
  9 27  1  0  0  0  0
  9 28  1  0  0  0  0
 10 11  1  0  0  0  0
 10 12  2  0  0  0  0
 11 29  1  0  0  0  0
M  END
>  <Mol_ID>
7756

>  <Formula>
C9H17NO2

>  <MolWeight>
171.23678

>  <Cat>
S2133

>  <Name>
Gabapentin

>  <Synonyms>
N/A

>  <Target>
GABA Receptor

>  <Form>
Free Base

>  <CAS>
60142-96-3

>  <URL>
http://selleckchem.com/products/Gabapentin(Neurontin).html

$$$$
