Nevadensin
 OpenBabel08302521503D

 41 43  0  0  0  0  0  0  0  0999 V2000
    1.0084    0.0515   -0.0283 O   0  0  0  0  0  0  0  0  0  0  0  0
    0.1285   -1.0590   -0.0470 C   0  0  0  0  0  0  0  0  0  0  0  0
    6.5346   -0.1957   -0.0617 O   0  0  0  0  0  0  0  0  0  0  0  0
    6.4131    2.5134   -0.0543 O   0  0  0  0  0  0  0  0  0  0  0  0
    2.3454   -2.5276    0.0774 O   0  0  0  0  0  0  0  0  0  0  0  0
    5.3405   -2.4415   -0.0263 O   0  0  0  0  0  0  0  0  0  0  0  0
    4.8965   -3.7847   -0.0270 C   0  0  0  0  0  0  0  0  0  0  0  0
   -0.3974    7.9287   -0.2133 O   0  0  0  0  0  0  0  0  0  0  0  0
   -0.8588    8.4859   -1.4376 C   0  0  0  0  0  0  0  0  0  0  0  0
    3.0988    1.0719   -0.0614 C   0  0  0  0  0  0  0  0  0  0  0  0
    4.4929    1.0736   -0.0677 C   0  0  0  0  0  0  0  0  0  0  0  0
    2.3692   -0.1397   -0.0260 C   0  0  0  0  0  0  0  0  0  0  0  0
    2.3599    2.2403   -0.0942 O   0  0  0  0  0  0  0  0  0  0  0  0
    5.1617   -0.1490   -0.0560 C   0  0  0  0  0  0  0  0  0  0  0  0
    5.1980    2.3806   -0.0784 C   0  0  0  0  0  0  0  0  0  0  0  0
    3.0647   -1.3684   -0.0061 C   0  0  0  0  0  0  0  0  0  0  0  0
    3.0261    3.4439   -0.1359 C   0  0  0  0  0  0  0  0  0  0  0  0
    4.4707   -1.3815   -0.0348 C   0  0  0  0  0  0  0  0  0  0  0  0
    4.3540    3.5854   -0.1258 C   0  0  0  0  0  0  0  0  0  0  0  0
    2.1474    4.6178   -0.1892 C   0  0  0  0  0  0  0  0  0  0  0  0
    1.7833    5.1744   -1.4214 C   0  0  0  0  0  0  0  0  0  0  0  0
    1.6624    5.1924    0.9879 C   0  0  0  0  0  0  0  0  0  0  0  0
    0.9314    6.2849   -1.4767 C   0  0  0  0  0  0  0  0  0  0  0  0
    0.8156    6.3032    0.9293 C   0  0  0  0  0  0  0  0  0  0  0  0
    0.4410    6.8517   -0.2998 C   0  0  0  0  0  0  0  0  0  0  0  0
    0.2661   -1.6623   -0.9497 H   0  0  0  0  0  0  0  0  0  0  0  0
    0.2184   -1.6525    0.8674 H   0  0  0  0  0  0  0  0  0  0  0  0
   -0.8937   -0.6674   -0.0757 H   0  0  0  0  0  0  0  0  0  0  0  0
    6.7800   -1.1385   -0.0046 H   0  0  0  0  0  0  0  0  0  0  0  0
    2.6842   -3.1455   -0.5861 H   0  0  0  0  0  0  0  0  0  0  0  0
    4.2704   -4.0059    0.8412 H   0  0  0  0  0  0  0  0  0  0  0  0
    4.4019   -4.0313   -0.9709 H   0  0  0  0  0  0  0  0  0  0  0  0
    5.7843   -4.4226    0.0357 H   0  0  0  0  0  0  0  0  0  0  0  0
   -0.0263    8.8615   -2.0413 H   0  0  0  0  0  0  0  0  0  0  0  0
   -1.4593    7.7614   -1.9981 H   0  0  0  0  0  0  0  0  0  0  0  0
   -1.5027    9.3373   -1.1962 H   0  0  0  0  0  0  0  0  0  0  0  0
    4.8618    4.5408   -0.1503 H   0  0  0  0  0  0  0  0  0  0  0  0
    2.1541    4.7433   -2.3490 H   0  0  0  0  0  0  0  0  0  0  0  0
    1.9330    4.7791    1.9566 H   0  0  0  0  0  0  0  0  0  0  0  0
    0.6711    6.6785   -2.4531 H   0  0  0  0  0  0  0  0  0  0  0  0
    0.4390    6.7412    1.8506 H   0  0  0  0  0  0  0  0  0  0  0  0
  1  2  1  0  0  0  0
  1 12  1  0  0  0  0
  2 26  1  0  0  0  0
  2 27  1  0  0  0  0
  2 28  1  0  0  0  0
  3 14  1  0  0  0  0
  3 29  1  0  0  0  0
  4 15  2  0  0  0  0
  5 16  1  0  0  0  0
  5 30  1  0  0  0  0
  6  7  1  0  0  0  0
  6 18  1  0  0  0  0
  7 31  1  0  0  0  0
  7 32  1  0  0  0  0
  7 33  1  0  0  0  0
  8  9  1  0  0  0  0
  8 25  1  0  0  0  0
  9 34  1  0  0  0  0
  9 35  1  0  0  0  0
  9 36  1  0  0  0  0
 10 11  1  0  0  0  0
 10 12  2  0  0  0  0
 10 13  1  0  0  0  0
 11 14  2  0  0  0  0
 11 15  1  0  0  0  0
 12 16  1  0  0  0  0
 13 17  1  0  0  0  0
 14 18  1  0  0  0  0
 15 19  1  0  0  0  0
 16 18  2  0  0  0  0
 17 19  2  0  0  0  0
 17 20  1  0  0  0  0
 19 37  1  0  0  0  0
 20 21  2  0  0  0  0
 20 22  1  0  0  0  0
 21 23  1  0  0  0  0
 21 38  1  0  0  0  0
 22 24  2  0  0  0  0
 22 39  1  0  0  0  0
 23 25  2  0  0  0  0
 23 40  1  0  0  0  0
 24 25  1  0  0  0  0
 24 41  1  0  0  0  0
M  END
>  <Mol_ID>
9879

>  <Formula>
C18H16O7

>  <MolWeight>
344.31544

>  <Cat>
E2728

>  <Name>
Nevadensin

>  <Synonyms>
NA

>  <Target>
hCE1

>  <Form>
Free Base

>  <CAS>
10176-66-6

>  <URL>
https://www.selleckchem.com/products/nevadensin.html

$$$$
