NEVIRAPINE (nevirapine).cdx
 OpenBabel08302521193D

 34 37  0  0  0  0  0  0  0  0999 V2000
   -0.1800   -0.9780    1.2164 N   0  0  0  0  0  0  0  0  0  0  0  0
   -0.2683   -1.7460    2.4634 C   0  0  0  0  0  0  0  0  0  0  0  0
    1.0677   -0.8232    0.5628 C   0  0  0  0  0  0  0  0  0  0  0  0
    1.4572    0.4667    0.1439 C   0  0  0  0  0  0  0  0  0  0  0  0
    0.6399    1.5993    0.3634 N   0  0  0  0  0  0  0  0  0  0  0  0
   -0.7275    1.7009    0.3727 C   0  0  0  0  0  0  0  0  0  0  0  0
   -1.5970    0.5671    0.0169 C   0  0  0  0  0  0  0  0  0  0  0  0
   -1.3700   -0.7167    0.5021 C   0  0  0  0  0  0  0  0  0  0  0  0
    1.8711   -1.9089    0.3980 N   0  0  0  0  0  0  0  0  0  0  0  0
    3.0526   -1.7249   -0.2228 C   0  0  0  0  0  0  0  0  0  0  0  0
    3.5187   -0.4908   -0.6399 C   0  0  0  0  0  0  0  0  0  0  0  0
    2.7232    0.6426   -0.4354 C   0  0  0  0  0  0  0  0  0  0  0  0
   -2.7395    0.8190   -0.7531 C   0  0  0  0  0  0  0  0  0  0  0  0
   -3.6112   -0.2224   -1.0371 C   0  0  0  0  0  0  0  0  0  0  0  0
   -3.3349   -1.4629   -0.4988 C   0  0  0  0  0  0  0  0  0  0  0  0
   -2.2557   -1.7253    0.2759 N   0  0  0  0  0  0  0  0  0  0  0  0
    3.2648    1.9628   -0.9133 C   0  0  0  0  0  0  0  0  0  0  0  0
   -1.2408    2.8010    0.5753 O   0  0  0  0  0  0  0  0  0  0  0  0
   -0.8058   -1.0244    3.6842 C   0  0  0  0  0  0  0  0  0  0  0  0
    0.6211   -1.4720    3.6548 C   0  0  0  0  0  0  0  0  0  0  0  0
   -0.5719   -2.7774    2.3096 H   0  0  0  0  0  0  0  0  0  0  0  0
    1.0819    2.5045    0.4349 H   0  0  0  0  0  0  0  0  0  0  0  0
    3.6361   -2.6269   -0.3873 H   0  0  0  0  0  0  0  0  0  0  0  0
    4.4879   -0.4168   -1.1251 H   0  0  0  0  0  0  0  0  0  0  0  0
   -2.9371    1.8198   -1.1252 H   0  0  0  0  0  0  0  0  0  0  0  0
   -4.4891   -0.0629   -1.6550 H   0  0  0  0  0  0  0  0  0  0  0  0
   -3.9888   -2.3132   -0.6836 H   0  0  0  0  0  0  0  0  0  0  0  0
    4.1836    2.2049   -0.3713 H   0  0  0  0  0  0  0  0  0  0  0  0
    3.4803    1.9107   -1.9842 H   0  0  0  0  0  0  0  0  0  0  0  0
    2.5748    2.7991   -0.7738 H   0  0  0  0  0  0  0  0  0  0  0  0
   -0.9933    0.0450    3.6029 H   0  0  0  0  0  0  0  0  0  0  0  0
   -1.5064   -1.5476    4.3173 H   0  0  0  0  0  0  0  0  0  0  0  0
    0.8935   -2.3034    4.2923 H   0  0  0  0  0  0  0  0  0  0  0  0
    1.3924   -0.7170    3.5600 H   0  0  0  0  0  0  0  0  0  0  0  0
  1  2  1  0  0  0  0
  1  3  1  0  0  0  0
  2 19  1  0  0  0  0
  2 21  1  0  0  0  0
  3  4  2  0  0  0  0
  3  9  1  0  0  0  0
  4  5  1  0  0  0  0
  5  6  1  0  0  0  0
  5 22  1  0  0  0  0
  6  7  1  0  0  0  0
  6 18  2  0  0  0  0
  7  8  2  0  0  0  0
  7 13  1  0  0  0  0
  8  1  1  0  0  0  0
  9 10  2  0  0  0  0
 10 11  1  0  0  0  0
 10 23  1  0  0  0  0
 11 12  2  0  0  0  0
 11 24  1  0  0  0  0
 12  4  1  0  0  0  0
 12 17  1  0  0  0  0
 13 14  2  0  0  0  0
 13 25  1  0  0  0  0
 14 15  1  0  0  0  0
 14 26  1  0  0  0  0
 15 16  2  0  0  0  0
 15 27  1  0  0  0  0
 16  8  1  0  0  0  0
 17 28  1  0  0  0  0
 17 29  1  0  0  0  0
 17 30  1  0  0  0  0
 19 20  1  0  0  0  0
 19 31  1  0  0  0  0
 19 32  1  0  0  0  0
 20  2  1  0  0  0  0
 20 33  1  0  0  0  0
 20 34  1  0  0  0  0
M  END
>  <Mol_ID>
424

>  <Formula>
C15H14N4O

>  <MolWeight>
266.29786

>  <Cat>
S1742

>  <Name>
Nevirapine (NSC 641530)

>  <Synonyms>
NSC 641530,NVP

>  <Target>
Reverse Transcriptase

>  <Form>
free base

>  <CAS>
129618-40-2

>  <URL>
http://selleckchem.com/products/Nevirapine(Viramune).html

$$$$
