NG 52
 OpenBabel08302521223D

 43 45  0  0  0  0  0  0  0  0999 V2000
    0.3514    0.6809   -0.0231 C   0  0  0  0  0  0  0  0  0  0  0  0
    0.2784   -0.6984    0.0739 C   0  0  0  0  0  0  0  0  0  0  0  0
   -0.8700    1.3586   -0.1318 C   0  0  0  0  0  0  0  0  0  0  0  0
    1.6627    1.1075   -0.0142 N   0  0  0  0  0  0  0  0  0  0  0  0
    1.5815   -1.1201    0.0653 N   0  0  0  0  0  0  0  0  0  0  0  0
   -0.8277   -1.4503    0.1545 N   0  0  0  0  0  0  0  0  0  0  0  0
   -2.0033    0.6054   -0.1207 N   0  0  0  0  0  0  0  0  0  0  0  0
   -0.9532    2.7555   -0.2109 N   0  0  0  0  0  0  0  0  0  0  0  0
    2.3723    0.0000    0.0403 C   0  0  0  0  0  0  0  0  0  0  0  0
    2.0315   -2.5049    0.0438 C   0  0  0  0  0  0  0  0  0  0  0  0
   -1.9518   -0.7171    0.0736 C   0  0  0  0  0  0  0  0  0  0  0  0
   -2.0085    3.5190   -0.7329 C   0  0  0  0  0  0  0  0  0  0  0  0
    2.8648   -2.8127   -1.2030 C   0  0  0  0  0  0  0  0  0  0  0  0
    2.7875   -2.8668    1.3207 C   0  0  0  0  0  0  0  0  0  0  0  0
   -3.1860   -1.3048    0.2722 N   0  0  0  0  0  0  0  0  0  0  0  0
   -2.2845    4.7856   -0.2087 C   0  0  0  0  0  0  0  0  0  0  0  0
   -2.8668    3.0085   -1.7178 C   0  0  0  0  0  0  0  0  0  0  0  0
   -3.2348   -2.5983    0.9293 C   0  0  0  0  0  0  0  0  0  0  0  0
   -3.3875    5.5189   -0.6614 C   0  0  0  0  0  0  0  0  0  0  0  0
   -3.9566    3.7415   -2.1829 C   0  0  0  0  0  0  0  0  0  0  0  0
   -2.8638   -2.4340    2.4145 C   0  0  0  0  0  0  0  0  0  0  0  0
   -4.2210    4.9972   -1.6495 C   0  0  0  0  0  0  0  0  0  0  0  0
   -3.6886   -1.4313    3.0141 O   0  0  0  0  0  0  0  0  0  0  0  0
   -0.0778    3.2366   -0.0476 H   0  0  0  0  0  0  0  0  0  0  0  0
    3.4541   -0.0478    0.0515 H   0  0  0  0  0  0  0  0  0  0  0  0
    1.1325   -3.1328   -0.0017 H   0  0  0  0  0  0  0  0  0  0  0  0
    3.7898   -2.2269   -1.2288 H   0  0  0  0  0  0  0  0  0  0  0  0
    3.1391   -3.8727   -1.2340 H   0  0  0  0  0  0  0  0  0  0  0  0
    2.3016   -2.5847   -2.1147 H   0  0  0  0  0  0  0  0  0  0  0  0
    2.1666   -2.6818    2.2041 H   0  0  0  0  0  0  0  0  0  0  0  0
    3.0651   -3.9259    1.3190 H   0  0  0  0  0  0  0  0  0  0  0  0
    3.7043   -2.2774    1.4276 H   0  0  0  0  0  0  0  0  0  0  0  0
   -3.7464   -1.1830   -0.5622 H   0  0  0  0  0  0  0  0  0  0  0  0
   -1.6676    5.1956    0.5865 H   0  0  0  0  0  0  0  0  0  0  0  0
   -2.6820    2.0252   -2.1435 H   0  0  0  0  0  0  0  0  0  0  0  0
   -4.2709   -2.9516    0.8716 H   0  0  0  0  0  0  0  0  0  0  0  0
   -2.6036   -3.3437    0.4353 H   0  0  0  0  0  0  0  0  0  0  0  0
   -3.6070    6.4913   -0.2279 H   0  0  0  0  0  0  0  0  0  0  0  0
   -4.5994    3.3210   -2.9507 H   0  0  0  0  0  0  0  0  0  0  0  0
   -3.0192   -3.3709    2.9553 H   0  0  0  0  0  0  0  0  0  0  0  0
   -1.8228   -2.1310    2.5466 H   0  0  0  0  0  0  0  0  0  0  0  0
   -5.0813    5.5626   -1.9959 H   0  0  0  0  0  0  0  0  0  0  0  0
   -3.6751   -0.6816    2.3809 H   0  0  0  0  0  0  0  0  0  0  0  0
  1  2  2  0  0  0  0
  1  3  1  0  0  0  0
  1  4  1  0  0  0  0
  2  5  1  0  0  0  0
  2  6  1  0  0  0  0
  3  7  2  0  0  0  0
  3  8  1  0  0  0  0
  4  9  2  0  0  0  0
  5 10  1  0  0  0  0
  5  9  1  0  0  0  0
  6 11  2  0  0  0  0
  7 11  1  0  0  0  0
  8 12  1  0  0  0  0
  8 24  1  0  0  0  0
  9 25  1  0  0  0  0
 10 13  1  0  0  0  0
 10 14  1  0  0  0  0
 10 26  1  0  0  0  0
 11 15  1  0  0  0  0
 12 16  2  0  0  0  0
 12 17  1  0  0  0  0
 13 27  1  0  0  0  0
 13 28  1  0  0  0  0
 13 29  1  0  0  0  0
 14 30  1  0  0  0  0
 14 31  1  0  0  0  0
 14 32  1  0  0  0  0
 15 18  1  0  0  0  0
 15 33  1  0  0  0  0
 16 19  1  0  0  0  0
 16 34  1  0  0  0  0
 17 20  2  0  0  0  0
 17 35  1  0  0  0  0
 18 21  1  0  0  0  0
 18 36  1  0  0  0  0
 18 37  1  0  0  0  0
 19 22  2  0  0  0  0
 19 38  1  0  0  0  0
 20 22  1  0  0  0  0
 20 39  1  0  0  0  0
 21 23  1  0  0  0  0
 21 40  1  0  0  0  0
 21 41  1  0  0  0  0
 22 42  1  0  0  0  0
 23 43  1  0  0  0  0
M  END
>  <Mol_ID>
4719

>  <Formula>
C16H19ClN6O

>  <MolWeight>
346.81466

>  <Cat>
S6540

>  <Name>
NG 52

>  <Synonyms>
N/A

>  <Target>
CDK

>  <Form>
Free Base

>  <CAS>
212779-48-1

>  <URL>
http://www.selleck.cn/products/ng-52.html

$$$$
