nialamide.cdx
 OpenBabel08302519573D

 40 41  0  0  0  0  0  0  0  0999 V2000
    8.3013   -6.5718    2.7201 C   0  0  0  0  0  0  0  0  0  0  0  0
    7.9565   -6.0217    1.5006 C   0  0  0  0  0  0  0  0  0  0  0  0
    7.1215   -4.9039    1.4958 C   0  0  0  0  0  0  0  0  0  0  0  0
    6.6875   -4.3613    2.7061 C   0  0  0  0  0  0  0  0  0  0  0  0
    7.0949   -4.9840    3.8740 C   0  0  0  0  0  0  0  0  0  0  0  0
    7.8820   -6.0802    3.9054 N   0  0  0  0  0  0  0  0  0  0  0  0
    6.7698   -4.3042    0.1831 C   0  0  0  0  0  0  0  0  0  0  0  0
    5.5574   -3.6289    0.1105 N   0  0  0  0  0  0  0  0  0  0  0  0
    7.5248   -4.4335   -0.7769 O   0  0  0  0  0  0  0  0  0  0  0  0
    5.1667   -3.0405   -1.1198 N   0  0  0  0  0  0  0  0  0  0  0  0
    5.6203   -1.6405   -1.1548 C   0  0  0  0  0  0  0  0  0  0  0  0
    5.2166   -0.9464   -2.4507 C   0  0  0  0  0  0  0  0  0  0  0  0
    5.7551    0.4700   -2.4734 C   0  0  0  0  0  0  0  0  0  0  0  0
    5.2558    1.2988   -1.4944 N   0  0  0  0  0  0  0  0  0  0  0  0
    6.5759    0.8335   -3.3104 O   0  0  0  0  0  0  0  0  0  0  0  0
    5.6978    2.6707   -1.3479 C   0  0  0  0  0  0  0  0  0  0  0  0
    6.3926    2.9080   -0.0291 C   0  0  0  0  0  0  0  0  0  0  0  0
    7.5650    2.2059    0.2965 C   0  0  0  0  0  0  0  0  0  0  0  0
    8.2499    2.4710    1.4828 C   0  0  0  0  0  0  0  0  0  0  0  0
    7.7784    3.4459    2.3610 C   0  0  0  0  0  0  0  0  0  0  0  0
    6.6173    4.1520    2.0507 C   0  0  0  0  0  0  0  0  0  0  0  0
    5.9287    3.8853    0.8665 C   0  0  0  0  0  0  0  0  0  0  0  0
    8.9447   -7.4453    2.7792 H   0  0  0  0  0  0  0  0  0  0  0  0
    8.3296   -6.4514    0.5764 H   0  0  0  0  0  0  0  0  0  0  0  0
    6.0822   -3.4648    2.7608 H   0  0  0  0  0  0  0  0  0  0  0  0
    6.7992   -4.6035    4.8483 H   0  0  0  0  0  0  0  0  0  0  0  0
    4.8609   -3.7125    0.8452 H   0  0  0  0  0  0  0  0  0  0  0  0
    5.6680   -3.5514   -1.8622 H   0  0  0  0  0  0  0  0  0  0  0  0
    5.1829   -1.1112   -0.3010 H   0  0  0  0  0  0  0  0  0  0  0  0
    6.7104   -1.5940   -1.0430 H   0  0  0  0  0  0  0  0  0  0  0  0
    5.6313   -1.4788   -3.3157 H   0  0  0  0  0  0  0  0  0  0  0  0
    4.1284   -0.9163   -2.5759 H   0  0  0  0  0  0  0  0  0  0  0  0
    4.5291    0.9721   -0.8731 H   0  0  0  0  0  0  0  0  0  0  0  0
    6.3701    2.9595   -2.1623 H   0  0  0  0  0  0  0  0  0  0  0  0
    4.7997    3.2928   -1.4254 H   0  0  0  0  0  0  0  0  0  0  0  0
    7.9617    1.4614   -0.3928 H   0  0  0  0  0  0  0  0  0  0  0  0
    9.1636    1.9276    1.7150 H   0  0  0  0  0  0  0  0  0  0  0  0
    8.3208    3.6623    3.2766 H   0  0  0  0  0  0  0  0  0  0  0  0
    6.2584    4.9235    2.7283 H   0  0  0  0  0  0  0  0  0  0  0  0
    5.0360    4.4650    0.6350 H   0  0  0  0  0  0  0  0  0  0  0  0
  1  2  2  0  0  0  0
  1 23  1  0  0  0  0
  2  3  1  0  0  0  0
  2 24  1  0  0  0  0
  3  4  2  0  0  0  0
  3  7  1  0  0  0  0
  4  5  1  0  0  0  0
  4 25  1  0  0  0  0
  5  6  2  0  0  0  0
  5 26  1  0  0  0  0
  6  1  1  0  0  0  0
  7  8  1  0  0  0  0
  7  9  2  0  0  0  0
  8 10  1  0  0  0  0
  8 27  1  0  0  0  0
 10 11  1  0  0  0  0
 10 28  1  0  0  0  0
 11 12  1  0  0  0  0
 11 29  1  0  0  0  0
 11 30  1  0  0  0  0
 12 13  1  0  0  0  0
 12 31  1  0  0  0  0
 12 32  1  0  0  0  0
 13 14  1  0  0  0  0
 13 15  2  0  0  0  0
 14 16  1  0  0  0  0
 14 33  1  0  0  0  0
 16 17  1  0  0  0  0
 16 34  1  0  0  0  0
 16 35  1  0  0  0  0
 17 18  2  0  0  0  0
 18 19  1  0  0  0  0
 18 36  1  0  0  0  0
 19 20  2  0  0  0  0
 19 37  1  0  0  0  0
 20 21  1  0  0  0  0
 20 38  1  0  0  0  0
 21 22  2  0  0  0  0
 21 39  1  0  0  0  0
 22 17  1  0  0  0  0
 22 40  1  0  0  0  0
M  END
>  <Mol_ID>
2301

>  <Formula>
C16H18N4O2

>  <MolWeight>
298.33972

>  <Cat>
S4342

>  <Name>
Nialamide

>  <Synonyms>
N/A

>  <Target>
MAO

>  <Form>
Free Base

>  <CAS>
51-12-7

>  <URL>
http://www.selleckchem.com/products/nialamide.html

$$$$
