Nicaraven.cdx
 OpenBabel08302522063D

 37 38  0  0  0  0  0  0  0  0999 V2000
    0.2876    1.4150   -0.5258 C   0  0  0  0  0  0  0  0  0  0  0  0
    1.0222    2.6954   -0.6074 C   0  0  0  0  0  0  0  0  0  0  0  0
    0.9908    0.2104   -0.5968 C   0  0  0  0  0  0  0  0  0  0  0  0
   -1.0953    1.3542   -0.4319 C   0  0  0  0  0  0  0  0  0  0  0  0
    0.4981    3.7661    0.0840 N   0  0  0  0  0  0  0  0  0  0  0  0
    2.0604    2.7571   -1.2563 O   0  0  0  0  0  0  0  0  0  0  0  0
    0.2942   -0.9949   -0.5523 C   0  0  0  0  0  0  0  0  0  0  0  0
   -1.8006    0.1960   -0.3859 N   0  0  0  0  0  0  0  0  0  0  0  0
    1.1722    5.0586    0.0943 C   0  0  0  0  0  0  0  0  0  0  0  0
   -1.0864   -0.9516   -0.4477 C   0  0  0  0  0  0  0  0  0  0  0  0
    0.7485    5.9498   -1.0941 C   0  0  3  0  0  0  0  0  0  0  0  0
   -0.6906    6.2494   -1.0994 N   0  0  0  0  0  0  0  0  0  0  0  0
    1.6004    7.2171   -1.1579 C   0  0  0  0  0  0  0  0  0  0  0  0
   -1.3345    6.8845   -0.0590 C   0  0  0  0  0  0  0  0  0  0  0  0
   -2.8012    7.0556   -0.1806 C   0  0  0  0  0  0  0  0  0  0  0  0
   -0.7666    7.2937    0.9458 O   0  0  0  0  0  0  0  0  0  0  0  0
   -3.6167    6.1868   -0.9107 C   0  0  0  0  0  0  0  0  0  0  0  0
   -3.4146    8.0824    0.5274 C   0  0  0  0  0  0  0  0  0  0  0  0
   -4.9973    6.3848   -0.9083 C   0  0  0  0  0  0  0  0  0  0  0  0
   -4.7536    8.3024    0.5348 N   0  0  0  0  0  0  0  0  0  0  0  0
   -5.5137    7.4453   -0.1791 C   0  0  0  0  0  0  0  0  0  0  0  0
    2.0750    0.2124   -0.6859 H   0  0  0  0  0  0  0  0  0  0  0  0
   -1.7093    2.2491   -0.4141 H   0  0  0  0  0  0  0  0  0  0  0  0
   -0.3118    3.6677    0.6814 H   0  0  0  0  0  0  0  0  0  0  0  0
    0.8173   -1.9438   -0.6036 H   0  0  0  0  0  0  0  0  0  0  0  0
    0.9484    5.5259    1.0575 H   0  0  0  0  0  0  0  0  0  0  0  0
    2.2540    4.8857    0.0607 H   0  0  0  0  0  0  0  0  0  0  0  0
   -1.6742   -1.8658   -0.4160 H   0  0  0  0  0  0  0  0  0  0  0  0
    0.9200    5.3899   -2.0224 H   0  0  0  0  0  0  0  0  0  0  0  0
   -1.1792    6.1076   -1.9720 H   0  0  0  0  0  0  0  0  0  0  0  0
    2.6636    6.9632   -1.2280 H   0  0  0  0  0  0  0  0  0  0  0  0
    1.3402    7.8169   -2.0368 H   0  0  0  0  0  0  0  0  0  0  0  0
    1.4658    7.8477   -0.2735 H   0  0  0  0  0  0  0  0  0  0  0  0
   -3.2049    5.3386   -1.4470 H   0  0  0  0  0  0  0  0  0  0  0  0
   -2.8348    8.7770    1.1303 H   0  0  0  0  0  0  0  0  0  0  0  0
   -5.6598    5.7172   -1.4490 H   0  0  0  0  0  0  0  0  0  0  0  0
   -6.5835    7.6325   -0.1403 H   0  0  0  0  0  0  0  0  0  0  0  0
  1  2  1  0  0  0  0
  1  3  2  0  0  0  0
  1  4  1  0  0  0  0
  2  5  1  0  0  0  0
  2  6  2  0  0  0  0
  3  7  1  0  0  0  0
  3 22  1  0  0  0  0
  4  8  2  0  0  0  0
  4 23  1  0  0  0  0
  5  9  1  0  0  0  0
  5 24  1  0  0  0  0
  7 10  2  0  0  0  0
  7 25  1  0  0  0  0
  8 10  1  0  0  0  0
  9 11  1  0  0  0  0
  9 26  1  0  0  0  0
  9 27  1  0  0  0  0
 10 28  1  0  0  0  0
 11 12  1  0  0  0  0
 11 13  1  0  0  0  0
 11 29  1  0  0  0  0
 12 14  1  0  0  0  0
 12 30  1  0  0  0  0
 13 31  1  0  0  0  0
 13 32  1  0  0  0  0
 13 33  1  0  0  0  0
 14 15  1  0  0  0  0
 14 16  2  0  0  0  0
 15 17  2  0  0  0  0
 15 18  1  0  0  0  0
 17 19  1  0  0  0  0
 17 34  1  0  0  0  0
 18 20  2  0  0  0  0
 18 35  1  0  0  0  0
 19 21  2  0  0  0  0
 19 36  1  0  0  0  0
 20 21  1  0  0  0  0
 21 37  1  0  0  0  0
M  END
>  <Mol_ID>
1405

>  <Formula>
C15H16N4O2

>  <MolWeight>
284.31314

>  <Cat>
S4265

>  <Name>
Nicaraven

>  <Synonyms>
N/A

>  <Target>
Others

>  <Form>
free base

>  <CAS>
79455-30-4

>  <URL>
http://selleckchem.com/products/nicaraven.html

$$$$
