Nifurtimox
 OpenBabel08302520403D

 32 33  0  0  0  0  0  0  0  0999 V2000
    0.8012    1.4624   -0.2715 S   0  0  0  0  0  0  0  0  0  0  0  0
    1.5405   -0.0911    0.1660 C   0  0  0  0  0  0  0  0  0  0  0  0
   -0.8638    1.2963    0.2992 C   0  0  0  0  0  0  0  0  0  0  0  0
    1.4338    2.4934    0.5311 O   0  0  0  0  0  0  0  0  0  0  0  0
    0.7750    1.5806   -1.7157 O   0  0  0  0  0  0  0  0  0  0  0  0
    0.6614   -1.2860   -0.1981 C   0  0  3  0  0  0  0  0  0  0  0  0
   -1.4519   -0.0240   -0.1380 C   0  0  0  0  0  0  0  0  0  0  0  0
   -0.6769   -1.1481    0.4280 N   0  0  0  0  0  0  0  0  0  0  0  0
    0.6586   -1.5796   -1.7053 C   0  0  0  0  0  0  0  0  0  0  0  0
   -1.3684   -2.3002    0.6575 N   0  0  0  0  0  0  0  0  0  0  0  0
   -2.1230   -2.2295    1.7152 C   0  0  0  0  0  0  0  0  0  0  0  0
   -3.0288   -3.2791    2.0798 C   0  0  0  0  0  0  0  0  0  0  0  0
   -3.8620   -3.0607    3.1460 O   0  0  0  0  0  0  0  0  0  0  0  0
   -3.2927   -4.5198    1.5280 C   0  0  0  0  0  0  0  0  0  0  0  0
   -4.6551   -4.1609    3.2422 C   0  0  0  0  0  0  0  0  0  0  0  0
   -4.3518   -5.0904    2.2804 C   0  0  0  0  0  0  0  0  0  0  0  0
   -5.6455   -4.1488    4.2776 N   0  3  0  0  0  0  0  0  0  0  0  0
   -6.3870   -5.1388    4.3342 O   0  0  0  0  0  0  0  0  0  0  0  0
   -5.6905   -3.1630    5.0231 O   0  5  0  0  0  0  0  0  0  0  0  0
    2.5183   -0.1386   -0.3212 H   0  0  0  0  0  0  0  0  0  0  0  0
    1.7045   -0.0618    1.2496 H   0  0  0  0  0  0  0  0  0  0  0  0
   -0.8527    1.3797    1.3913 H   0  0  0  0  0  0  0  0  0  0  0  0
   -1.4404    2.1337   -0.1052 H   0  0  0  0  0  0  0  0  0  0  0  0
    1.1468   -2.1533    0.2706 H   0  0  0  0  0  0  0  0  0  0  0  0
   -1.5420   -0.1003   -1.2263 H   0  0  0  0  0  0  0  0  0  0  0  0
   -2.4819   -0.0593    0.2394 H   0  0  0  0  0  0  0  0  0  0  0  0
    1.6864   -1.6615   -2.0781 H   0  0  0  0  0  0  0  0  0  0  0  0
    0.1548   -2.5280   -1.9171 H   0  0  0  0  0  0  0  0  0  0  0  0
    0.1676   -0.8067   -2.3002 H   0  0  0  0  0  0  0  0  0  0  0  0
   -2.1283   -1.3326    2.3658 H   0  0  0  0  0  0  0  0  0  0  0  0
   -2.7846   -4.9445    0.6709 H   0  0  0  0  0  0  0  0  0  0  0  0
   -4.8360   -6.0454    2.1320 H   0  0  0  0  0  0  0  0  0  0  0  0
  1  2  1  0  0  0  0
  1  3  1  0  0  0  0
  1  4  2  0  0  0  0
  1  5  2  0  0  0  0
  2  6  1  0  0  0  0
  2 20  1  0  0  0  0
  2 21  1  0  0  0  0
  3  7  1  0  0  0  0
  3 22  1  0  0  0  0
  3 23  1  0  0  0  0
  6  8  1  0  0  0  0
  6  9  1  0  0  0  0
  6 24  1  0  0  0  0
  7  8  1  0  0  0  0
  7 25  1  0  0  0  0
  7 26  1  0  0  0  0
  8 10  1  0  0  0  0
  9 27  1  0  0  0  0
  9 28  1  0  0  0  0
  9 29  1  0  0  0  0
 10 11  2  0  0  0  0
 11 12  1  0  0  0  0
 11 30  1  0  0  0  0
 12 13  1  0  0  0  0
 12 14  2  0  0  0  0
 13 15  1  0  0  0  0
 14 16  1  0  0  0  0
 14 31  1  0  0  0  0
 15 17  1  0  0  0  0
 15 16  2  0  0  0  0
 16 32  1  0  0  0  0
 17 18  2  0  0  0  0
 17 19  1  0  0  0  0
M  CHG  2  17   1  19  -1
M  END
>  <Mol_ID>
3771

>  <Formula>
C10H13N3O5S

>  <MolWeight>
287.29232

>  <Cat>
S6459

>  <Name>
Nifurtimox

>  <Synonyms>
BAY-2502

>  <Target>
Anti-infection

>  <Form>
Free Base

>  <CAS>
23256-30-6

>  <URL>
http://www.selleck.cn/products/nifurtimox.html

$$$$
