nifuroxazide.cdx
 OpenBabel08302522043D

 29 30  0  0  0  0  0  0  0  0999 V2000
   -0.1774    1.1775   -0.3656 C   0  0  0  0  0  0  0  0  0  0  0  0
    0.9071    0.5670   -0.9457 C   0  0  0  0  0  0  0  0  0  0  0  0
    0.7210   -0.7771   -1.0659 O   0  0  0  0  0  0  0  0  0  0  0  0
   -0.5217   -1.0465   -0.5466 C   0  0  0  0  0  0  0  0  0  0  0  0
   -1.1024    0.1323   -0.1054 C   0  0  0  0  0  0  0  0  0  0  0  0
    2.1443    1.0984   -1.4295 N   0  3  0  0  0  0  0  0  0  0  0  0
    2.3006    2.3199   -1.3090 O   0  5  0  0  0  0  0  0  0  0  0  0
    2.9571    0.3093   -1.9325 O   0  0  0  0  0  0  0  0  0  0  0  0
   -0.9846   -2.4134   -0.5647 C   0  0  0  0  0  0  0  0  0  0  0  0
   -2.1709   -2.7192   -0.1327 N   0  0  0  0  0  0  0  0  0  0  0  0
   -2.5710   -4.0431   -0.1622 N   0  0  0  0  0  0  0  0  0  0  0  0
   -1.7311   -5.1445   -0.0284 C   0  0  0  0  0  0  0  0  0  0  0  0
   -2.3811   -6.4930   -0.0599 C   0  0  0  0  0  0  0  0  0  0  0  0
   -0.5150   -5.0832    0.1300 O   0  0  0  0  0  0  0  0  0  0  0  0
   -3.6028   -6.7392   -0.7056 C   0  0  0  0  0  0  0  0  0  0  0  0
   -4.1139   -8.0436   -0.7723 C   0  0  0  0  0  0  0  0  0  0  0  0
   -3.4045   -9.0944   -0.1964 C   0  0  0  0  0  0  0  0  0  0  0  0
   -2.1999   -8.8637    0.4543 C   0  0  0  0  0  0  0  0  0  0  0  0
   -1.6870   -7.5671    0.5191 C   0  0  0  0  0  0  0  0  0  0  0  0
   -3.8506  -10.3804   -0.2600 O   0  0  0  0  0  0  0  0  0  0  0  0
   -0.2866    2.2345   -0.1606 H   0  0  0  0  0  0  0  0  0  0  0  0
   -2.0817    0.2180    0.3455 H   0  0  0  0  0  0  0  0  0  0  0  0
   -0.2856   -3.1443   -1.0010 H   0  0  0  0  0  0  0  0  0  0  0  0
   -3.5617   -4.1658    0.0243 H   0  0  0  0  0  0  0  0  0  0  0  0
   -4.1530   -5.9439   -1.1998 H   0  0  0  0  0  0  0  0  0  0  0  0
   -5.0513   -8.2243   -1.2908 H   0  0  0  0  0  0  0  0  0  0  0  0
   -1.6498   -9.6922    0.8938 H   0  0  0  0  0  0  0  0  0  0  0  0
   -0.7305   -7.4003    1.0118 H   0  0  0  0  0  0  0  0  0  0  0  0
   -4.6635  -10.4120   -0.7900 H   0  0  0  0  0  0  0  0  0  0  0  0
  1  2  2  0  0  0  0
  1 21  1  0  0  0  0
  2  3  1  0  0  0  0
  2  6  1  0  0  0  0
  3  4  1  0  0  0  0
  4  5  2  0  0  0  0
  4  9  1  0  0  0  0
  5  1  1  0  0  0  0
  5 22  1  0  0  0  0
  6  7  1  0  0  0  0
  6  8  2  0  0  0  0
  9 10  2  0  0  0  0
  9 23  1  0  0  0  0
 10 11  1  0  0  0  0
 11 12  1  0  0  0  0
 11 24  1  0  0  0  0
 12 13  1  0  0  0  0
 12 14  2  0  0  0  0
 13 15  2  0  0  0  0
 15 16  1  0  0  0  0
 15 25  1  0  0  0  0
 16 17  2  0  0  0  0
 16 26  1  0  0  0  0
 17 18  1  0  0  0  0
 17 20  1  0  0  0  0
 18 19  2  0  0  0  0
 18 27  1  0  0  0  0
 19 13  1  0  0  0  0
 19 28  1  0  0  0  0
 20 29  1  0  0  0  0
M  CHG  2   6   1   7  -1
M  END
>  <Mol_ID>
1288

>  <Formula>
C12H9N3O5

>  <MolWeight>
275.21696

>  <Cat>
S4182

>  <Name>
Nifuroxazide

>  <Synonyms>
N/A

>  <Target>
STAT

>  <Form>
free base

>  <CAS>
965-52-6

>  <URL>
http://selleckchem.com/products/nifuroxazide.html

$$$$
