Nigakinone
 OpenBabel08302521533D

 30 33  0  0  0  0  0  0  0  0999 V2000
    0.9085   -0.1730   -0.0641 O   0  0  0  0  0  0  0  0  0  0  0  0
    5.0239    2.4025   -0.0764 O   0  0  0  0  0  0  0  0  0  0  0  0
    4.3944    3.6777   -0.0809 C   0  0  0  0  0  0  0  0  0  0  0  0
    2.0614    2.3197   -0.0710 O   0  0  0  0  0  0  0  0  0  0  0  0
    4.2927   -1.1619   -0.0640 C   0  0  0  0  0  0  0  0  0  0  0  0
    2.9274   -1.2659   -0.0636 N   0  0  0  0  0  0  0  0  0  0  0  0
    4.8570   -2.4209   -0.0653 C   0  0  0  0  0  0  0  0  0  0  0  0
    5.0167    0.0134   -0.0657 C   0  0  0  0  0  0  0  0  0  0  0  0
    2.5765   -2.6083   -0.0645 C   0  0  0  0  0  0  0  0  0  0  0  0
    2.1338   -0.1193   -0.0643 C   0  0  0  0  0  0  0  0  0  0  0  0
    3.7705   -3.3476   -0.0653 C   0  0  0  0  0  0  0  0  0  0  0  0
    6.2552   -2.5032   -0.0676 C   0  0  0  0  0  0  0  0  0  0  0  0
    4.2347    1.2676   -0.0695 C   0  0  0  0  0  0  0  0  0  0  0  0
    6.3653   -0.0626   -0.0665 N   0  0  0  0  0  0  0  0  0  0  0  0
    1.3197   -3.2394   -0.0663 C   0  0  0  0  0  0  0  0  0  0  0  0
    2.8784    1.1943   -0.0672 C   0  0  0  0  0  0  0  0  0  0  0  0
    3.6992   -4.7568   -0.0676 C   0  0  0  0  0  0  0  0  0  0  0  0
    6.9429   -1.2910   -0.0673 C   0  0  0  0  0  0  0  0  0  0  0  0
    1.2807   -4.6376   -0.0684 C   0  0  0  0  0  0  0  0  0  0  0  0
    2.4518   -5.3880   -0.0690 C   0  0  0  0  0  0  0  0  0  0  0  0
    3.7895    3.8157   -0.9831 H   0  0  0  0  0  0  0  0  0  0  0  0
    3.8045    3.8280    0.8293 H   0  0  0  0  0  0  0  0  0  0  0  0
    5.1748    4.4441   -0.0932 H   0  0  0  0  0  0  0  0  0  0  0  0
    1.1386    1.9883   -0.0713 H   0  0  0  0  0  0  0  0  0  0  0  0
    6.7785   -3.4516   -0.0701 H   0  0  0  0  0  0  0  0  0  0  0  0
    0.3957   -2.6669   -0.0668 H   0  0  0  0  0  0  0  0  0  0  0  0
    4.6073   -5.3533   -0.0692 H   0  0  0  0  0  0  0  0  0  0  0  0
    8.0304   -1.2818   -0.0683 H   0  0  0  0  0  0  0  0  0  0  0  0
    0.3183   -5.1449   -0.0706 H   0  0  0  0  0  0  0  0  0  0  0  0
    2.3988   -6.4743   -0.0712 H   0  0  0  0  0  0  0  0  0  0  0  0
  1 10  2  0  0  0  0
  2  3  1  0  0  0  0
  2 13  1  0  0  0  0
  3 21  1  0  0  0  0
  3 22  1  0  0  0  0
  3 23  1  0  0  0  0
  4 16  1  0  0  0  0
  4 24  1  0  0  0  0
  5  6  1  0  0  0  0
  5  7  2  0  0  0  0
  5  8  1  0  0  0  0
  6  9  1  0  0  0  0
  6 10  1  0  0  0  0
  7 11  1  0  0  0  0
  7 12  1  0  0  0  0
  8 13  1  0  0  0  0
  8 14  2  0  0  0  0
  9 11  2  0  0  0  0
  9 15  1  0  0  0  0
 10 16  1  0  0  0  0
 11 17  1  0  0  0  0
 12 18  2  0  0  0  0
 12 25  1  0  0  0  0
 13 16  2  0  0  0  0
 14 18  1  0  0  0  0
 15 19  2  0  0  0  0
 15 26  1  0  0  0  0
 17 20  2  0  0  0  0
 17 27  1  0  0  0  0
 18 28  1  0  0  0  0
 19 20  1  0  0  0  0
 19 29  1  0  0  0  0
 20 30  1  0  0  0  0
M  END
>  <Mol_ID>
9972

>  <Formula>
C15H10N2O3

>  <MolWeight>
266.2515

>  <Cat>
E5292

>  <Name>
Nigakinone

>  <Synonyms>
4-Methoxy-5-hydroxycanthin-6-one

>  <Target>
Nitric oxide, TNF-¦Á

>  <Form>
Free Base

>  <CAS>
18110-86-6

>  <URL>
https://www.selleckchem.com/products/nigakinone.html

$$$$
