Nimesulide.cdx
 OpenBabel08302521273D

 33 34  0  0  0  0  0  0  0  0999 V2000
    1.2849   -0.0993   -0.0209 C   0  0  0  0  0  0  0  0  0  0  0  0
    0.5604   -1.2929   -0.1393 C   0  0  0  0  0  0  0  0  0  0  0  0
   -0.8384   -1.2484   -0.2119 C   0  0  0  0  0  0  0  0  0  0  0  0
   -1.5120   -0.0258   -0.1589 C   0  0  0  0  0  0  0  0  0  0  0  0
   -0.7853    1.1490    0.0605 C   0  0  0  0  0  0  0  0  0  0  0  0
    0.6169    1.1259    0.0598 C   0  0  0  0  0  0  0  0  0  0  0  0
    1.3729    2.3343    0.1265 N   0  0  0  0  0  0  0  0  0  0  0  0
   -1.4282    2.3509    0.2558 O   0  0  0  0  0  0  0  0  0  0  0  0
   -2.4037    2.4316    1.2345 C   0  0  0  0  0  0  0  0  0  0  0  0
    2.0637    2.8187    1.5812 S   0  0  0  0  0  0  0  0  0  0  0  0
    2.6246    1.6649    2.2543 O   0  0  0  0  0  0  0  0  0  0  0  0
    2.8747    3.9769    1.2662 O   0  0  0  0  0  0  0  0  0  0  0  0
    0.6677    3.4022    2.5173 C   0  0  0  0  0  0  0  0  0  0  0  0
   -1.6196   -2.4924   -0.2803 N   0  3  0  0  0  0  0  0  0  0  0  0
   -0.9981   -3.5620   -0.2427 O   0  0  0  0  0  0  0  0  0  0  0  0
   -2.8512   -2.3915   -0.3434 O   0  5  0  0  0  0  0  0  0  0  0  0
   -2.6426    1.4779    2.2343 C   0  0  0  0  0  0  0  0  0  0  0  0
   -3.6710    1.6639    3.1592 C   0  0  0  0  0  0  0  0  0  0  0  0
   -4.4325    2.8285    3.1253 C   0  0  0  0  0  0  0  0  0  0  0  0
   -4.1672    3.8050    2.1674 C   0  0  0  0  0  0  0  0  0  0  0  0
   -3.1586    3.6057    1.2216 C   0  0  0  0  0  0  0  0  0  0  0  0
    2.3729   -0.1316    0.0056 H   0  0  0  0  0  0  0  0  0  0  0  0
    1.0986   -2.2379   -0.1798 H   0  0  0  0  0  0  0  0  0  0  0  0
   -2.5978    0.0198   -0.2265 H   0  0  0  0  0  0  0  0  0  0  0  0
    1.0181    3.1188   -0.4219 H   0  0  0  0  0  0  0  0  0  0  0  0
    0.1497    4.1734    1.9443 H   0  0  0  0  0  0  0  0  0  0  0  0
    0.0181    2.5601    2.7490 H   0  0  0  0  0  0  0  0  0  0  0  0
    1.0412    3.8317    3.4497 H   0  0  0  0  0  0  0  0  0  0  0  0
   -2.0504    0.5731    2.3248 H   0  0  0  0  0  0  0  0  0  0  0  0
   -3.8737    0.8999    3.9068 H   0  0  0  0  0  0  0  0  0  0  0  0
   -5.2284    2.9762    3.8517 H   0  0  0  0  0  0  0  0  0  0  0  0
   -4.7499    4.7224    2.1547 H   0  0  0  0  0  0  0  0  0  0  0  0
   -2.9628    4.3723    0.4767 H   0  0  0  0  0  0  0  0  0  0  0  0
  1  2  2  0  0  0  0
  1 22  1  0  0  0  0
  2  3  1  0  0  0  0
  2 23  1  0  0  0  0
  3  4  2  0  0  0  0
  3 14  1  0  0  0  0
  4  5  1  0  0  0  0
  4 24  1  0  0  0  0
  5  6  2  0  0  0  0
  5  8  1  0  0  0  0
  6  1  1  0  0  0  0
  6  7  1  0  0  0  0
  7 10  1  0  0  0  0
  7 25  1  0  0  0  0
  8  9  1  0  0  0  0
  9 17  2  0  0  0  0
 10 11  2  0  0  0  0
 10 12  2  0  0  0  0
 10 13  1  0  0  0  0
 13 26  1  0  0  0  0
 13 27  1  0  0  0  0
 13 28  1  0  0  0  0
 14 15  2  0  0  0  0
 14 16  1  0  0  0  0
 17 18  1  0  0  0  0
 17 29  1  0  0  0  0
 18 19  2  0  0  0  0
 18 30  1  0  0  0  0
 19 20  1  0  0  0  0
 19 31  1  0  0  0  0
 20 21  2  0  0  0  0
 20 32  1  0  0  0  0
 21  9  1  0  0  0  0
 21 33  1  0  0  0  0
M  CHG  2  14   1  16  -1
M  END
>  <Mol_ID>
510

>  <Formula>
C13H12N2O5S

>  <MolWeight>
308.30978

>  <Cat>
S2040

>  <Name>
Nimesulide

>  <Synonyms>
N/A

>  <Target>
COX

>  <Form>
free base

>  <CAS>
51803-78-2

>  <URL>
http://selleckchem.com/products/Nimesulide.html

$$$$
