Nisoldipine.cdx
 OpenBabel08302522063D

 52 53  0  0  0  0  0  0  0  0999 V2000
   -1.4179    0.2519    0.3664 C   0  0  0  0  0  0  0  0  0  0  0  0
   -1.3929   -1.0893    0.5404 C   0  0  0  0  0  0  0  0  0  0  0  0
   -0.0474   -1.8407    0.7626 C   0  0  3  0  0  0  0  0  0  0  0  0
    1.1876   -0.9365    0.4871 C   0  0  0  0  0  0  0  0  0  0  0  0
    1.0283    0.3994    0.2780 C   0  0  0  0  0  0  0  0  0  0  0  0
   -0.2343    0.9582    0.3677 N   0  0  0  0  0  0  0  0  0  0  0  0
   -2.6306    1.1209    0.1049 C   0  0  0  0  0  0  0  0  0  0  0  0
    2.0664    1.4267   -0.1304 C   0  0  0  0  0  0  0  0  0  0  0  0
   -2.6715   -1.8509    0.5647 C   0  0  0  0  0  0  0  0  0  0  0  0
    2.5133   -1.5986    0.2828 C   0  0  0  0  0  0  0  0  0  0  0  0
   -0.1055   -2.5118    2.1646 C   0  0  0  0  0  0  0  0  0  0  0  0
    0.1337   -1.7284    3.3113 C   0  0  0  0  0  0  0  0  0  0  0  0
   -0.4418   -2.0642    4.5438 C   0  0  0  0  0  0  0  0  0  0  0  0
   -1.2903   -3.1620    4.6505 C   0  0  0  0  0  0  0  0  0  0  0  0
   -1.4113   -4.0370    3.5783 C   0  0  0  0  0  0  0  0  0  0  0  0
   -0.7427   -3.7633    2.3713 C   0  0  0  0  0  0  0  0  0  0  0  0
   -0.6887   -4.8552    1.3803 N   0  3  0  0  0  0  0  0  0  0  0  0
    0.1828   -4.8110    0.5040 O   0  0  0  0  0  0  0  0  0  0  0  0
   -1.4835   -5.7973    1.5195 O   0  5  0  0  0  0  0  0  0  0  0  0
    2.4606   -2.8955    0.6591 O   0  0  0  0  0  0  0  0  0  0  0  0
    3.5079   -1.0657   -0.1957 O   0  0  0  0  0  0  0  0  0  0  0  0
    3.6228   -3.6727    0.3512 C   0  0  0  0  0  0  0  0  0  0  0  0
   -2.5087   -3.0746    0.0086 O   0  0  0  0  0  0  0  0  0  0  0  0
   -3.7179   -1.4342    1.0366 O   0  0  0  0  0  0  0  0  0  0  0  0
   -3.6910   -3.9005   -0.0564 C   0  0  0  0  0  0  0  0  0  0  0  0
   -4.3433   -3.7656   -1.4337 C   0  0  0  0  0  0  0  0  0  0  0  0
   -3.3773   -4.1915   -2.5421 C   0  0  0  0  0  0  0  0  0  0  0  0
   -5.6255   -4.5925   -1.5005 C   0  0  0  0  0  0  0  0  0  0  0  0
   -0.0047   -2.5971   -0.0249 H   0  0  0  0  0  0  0  0  0  0  0  0
   -0.3056    1.9469    0.1313 H   0  0  0  0  0  0  0  0  0  0  0  0
   -2.7216    1.8767    0.8909 H   0  0  0  0  0  0  0  0  0  0  0  0
   -2.5062    1.6340   -0.8473 H   0  0  0  0  0  0  0  0  0  0  0  0
   -3.5824    0.5888    0.0439 H   0  0  0  0  0  0  0  0  0  0  0  0
    1.7036    1.9658   -1.0158 H   0  0  0  0  0  0  0  0  0  0  0  0
    2.1979    2.1630    0.6687 H   0  0  0  0  0  0  0  0  0  0  0  0
    3.0483    1.0475   -0.3976 H   0  0  0  0  0  0  0  0  0  0  0  0
    0.7106   -0.8077    3.2487 H   0  0  0  0  0  0  0  0  0  0  0  0
   -0.2800   -1.4274    5.4108 H   0  0  0  0  0  0  0  0  0  0  0  0
   -1.8324   -3.3536    5.5740 H   0  0  0  0  0  0  0  0  0  0  0  0
   -2.0351   -4.9222    3.6917 H   0  0  0  0  0  0  0  0  0  0  0  0
    3.5106   -4.1066   -0.6481 H   0  0  0  0  0  0  0  0  0  0  0  0
    4.5513   -3.0949    0.4056 H   0  0  0  0  0  0  0  0  0  0  0  0
    3.6881   -4.4852    1.0796 H   0  0  0  0  0  0  0  0  0  0  0  0
   -3.3840   -4.9381    0.1069 H   0  0  0  0  0  0  0  0  0  0  0  0
   -4.3955   -3.6586    0.7491 H   0  0  0  0  0  0  0  0  0  0  0  0
   -4.5908   -2.7099   -1.5977 H   0  0  0  0  0  0  0  0  0  0  0  0
   -3.2337   -5.2774   -2.5488 H   0  0  0  0  0  0  0  0  0  0  0  0
   -3.7691   -3.8956   -3.5205 H   0  0  0  0  0  0  0  0  0  0  0  0
   -2.3944   -3.7234   -2.4264 H   0  0  0  0  0  0  0  0  0  0  0  0
   -6.3624   -4.2263   -0.7782 H   0  0  0  0  0  0  0  0  0  0  0  0
   -6.0742   -4.5368   -2.4975 H   0  0  0  0  0  0  0  0  0  0  0  0
   -5.4311   -5.6476   -1.2763 H   0  0  0  0  0  0  0  0  0  0  0  0
  1  2  2  0  0  0  0
  1  7  1  0  0  0  0
  2  3  1  0  0  0  0
  2  9  1  0  0  0  0
  3  4  1  0  0  0  0
  3 11  1  0  0  0  0
  3 29  1  0  0  0  0
  4  5  2  0  0  0  0
  4 10  1  0  0  0  0
  5  6  1  0  0  0  0
  5  8  1  0  0  0  0
  6  1  1  0  0  0  0
  6 30  1  0  0  0  0
  7 31  1  0  0  0  0
  7 32  1  0  0  0  0
  7 33  1  0  0  0  0
  8 34  1  0  0  0  0
  8 35  1  0  0  0  0
  8 36  1  0  0  0  0
  9 23  1  0  0  0  0
  9 24  2  0  0  0  0
 10 20  1  0  0  0  0
 10 21  2  0  0  0  0
 11 12  2  0  0  0  0
 12 13  1  0  0  0  0
 12 37  1  0  0  0  0
 13 14  2  0  0  0  0
 13 38  1  0  0  0  0
 14 15  1  0  0  0  0
 14 39  1  0  0  0  0
 15 16  2  0  0  0  0
 15 40  1  0  0  0  0
 16 11  1  0  0  0  0
 16 17  1  0  0  0  0
 17 18  2  0  0  0  0
 17 19  1  0  0  0  0
 20 22  1  0  0  0  0
 22 41  1  0  0  0  0
 22 42  1  0  0  0  0
 22 43  1  0  0  0  0
 23 25  1  0  0  0  0
 25 26  1  0  0  0  0
 25 44  1  0  0  0  0
 25 45  1  0  0  0  0
 26 27  1  0  0  0  0
 26 28  1  0  0  0  0
 26 46  1  0  0  0  0
 27 47  1  0  0  0  0
 27 48  1  0  0  0  0
 27 49  1  0  0  0  0
 28 50  1  0  0  0  0
 28 51  1  0  0  0  0
 28 52  1  0  0  0  0
M  CHG  2  17   1  19  -1
M  END
>  <Mol_ID>
1387

>  <Formula>
C20H24N2O6

>  <MolWeight>
388.41436

>  <Cat>
S1748

>  <Name>
Nisoldipine

>  <Synonyms>
BAY K 5552

>  <Target>
Calcium Channel

>  <Form>
free base

>  <CAS>
63675-72-9

>  <URL>
http://selleckchem.com/products/Nisoldipine(Sular).html

$$$$
