Nitenpyram.cdx
 OpenBabel08302522063D

 33 33  0  0  0  0  0  0  0  0999 V2000
    5.6223   -2.9319   -1.3240 C   0  0  0  0  0  0  0  0  0  0  0  0
    5.1765   -3.7993   -0.3431 C   0  0  0  0  0  0  0  0  0  0  0  0
    3.8774   -3.6464    0.1280 C   0  0  0  0  0  0  0  0  0  0  0  0
    3.0552   -2.6369   -0.3842 C   0  0  0  0  0  0  0  0  0  0  0  0
    3.6078   -1.8220   -1.3687 C   0  0  0  0  0  0  0  0  0  0  0  0
    4.8666   -1.9454   -1.8513 N   0  0  0  0  0  0  0  0  0  0  0  0
    1.6589   -2.3404    0.1132 C   0  0  0  0  0  0  0  0  0  0  0  0
    1.1938   -3.2670    1.1599 N   0  0  0  0  0  0  0  0  0  0  0  0
    0.5550   -4.5276    0.9290 C   0  0  0  0  0  0  0  0  0  0  0  0
    0.2592   -5.2814    2.0222 C   0  0  0  0  0  0  0  0  0  0  0  0
   -0.3483   -6.5942    1.9984 N   0  3  0  0  0  0  0  0  0  0  0  0
   -0.5723   -7.0982    3.1043 O   0  0  0  0  0  0  0  0  0  0  0  0
   -0.5924   -7.1474    0.9134 O   0  5  0  0  0  0  0  0  0  0  0  0
    1.4916   -2.7221    2.5105 C   0  0  0  0  0  0  0  0  0  0  0  0
    0.2936   -1.9610    3.0614 C   0  0  0  0  0  0  0  0  0  0  0  0
    0.1982   -5.0063   -0.3297 N   0  0  0  0  0  0  0  0  0  0  0  0
    0.4603   -4.6633   -1.7009 C   0  0  0  0  0  0  0  0  0  0  0  0
    6.6304   -3.0075   -1.7231 H   0  0  0  0  0  0  0  0  0  0  0  0
    5.8260   -4.5723    0.0472 H   0  0  0  0  0  0  0  0  0  0  0  0
    3.5152   -4.3199    0.9029 H   0  0  0  0  0  0  0  0  0  0  0  0
    3.0409   -1.0035   -1.8070 H   0  0  0  0  0  0  0  0  0  0  0  0
    1.6862   -1.3199    0.5219 H   0  0  0  0  0  0  0  0  0  0  0  0
    0.9369   -2.2518   -0.6952 H   0  0  0  0  0  0  0  0  0  0  0  0
    0.4418   -5.0251    3.0506 H   0  0  0  0  0  0  0  0  0  0  0  0
    1.8143   -3.5035    3.2051 H   0  0  0  0  0  0  0  0  0  0  0  0
    2.3486   -2.0366    2.4666 H   0  0  0  0  0  0  0  0  0  0  0  0
   -0.5596   -2.6218    3.2297 H   0  0  0  0  0  0  0  0  0  0  0  0
    0.5525   -1.4894    4.0155 H   0  0  0  0  0  0  0  0  0  0  0  0
   -0.0253   -1.1720    2.3704 H   0  0  0  0  0  0  0  0  0  0  0  0
   -0.1660   -5.9683   -0.2897 H   0  0  0  0  0  0  0  0  0  0  0  0
    1.3444   -5.1839   -2.0716 H   0  0  0  0  0  0  0  0  0  0  0  0
   -0.3949   -5.0061   -2.3017 H   0  0  0  0  0  0  0  0  0  0  0  0
    0.5465   -3.6042   -1.9160 H   0  0  0  0  0  0  0  0  0  0  0  0
  1  2  2  0  0  0  0
  1 18  1  0  0  0  0
  2  3  1  0  0  0  0
  2 19  1  0  0  0  0
  3  4  2  0  0  0  0
  3 20  1  0  0  0  0
  4  5  1  0  0  0  0
  4  7  1  0  0  0  0
  5  6  2  0  0  0  0
  5 21  1  0  0  0  0
  6  1  1  0  0  0  0
  7  8  1  0  0  0  0
  7 22  1  0  0  0  0
  7 23  1  0  0  0  0
  8  9  1  0  0  0  0
  8 14  1  0  0  0  0
  9 10  2  0  0  0  0
  9 16  1  0  0  0  0
 10 11  1  0  0  0  0
 10 24  1  0  0  0  0
 11 12  2  0  0  0  0
 11 13  1  0  0  0  0
 14 15  1  0  0  0  0
 14 25  1  0  0  0  0
 14 26  1  0  0  0  0
 15 27  1  0  0  0  0
 15 28  1  0  0  0  0
 15 29  1  0  0  0  0
 16 17  1  0  0  0  0
 16 30  1  0  0  0  0
 17 31  1  0  0  0  0
 17 32  1  0  0  0  0
 17 33  1  0  0  0  0
M  CHG  2  11   1  13  -1
M  END
>  <Mol_ID>
1448

>  <Formula>
C11H15ClN4O2

>  <MolWeight>
270.7154

>  <Cat>
S4422

>  <Name>
Nitenpyram

>  <Synonyms>
Bestguard,Capstar

>  <Target>
AChR,Parasite

>  <Form>
free base

>  <CAS>
150824-47-8

>  <URL>
http://selleckchem.com/products/nitenpyram.html

$$$$
