Nizatidine.cdx
 OpenBabel08302519503D

 42 42  0  0  0  0  0  0  0  0999 V2000
   -1.2075   -0.1089    0.1959 S   0  0  0  0  0  0  0  0  0  0  0  0
    0.1259   -0.9763   -0.4589 C   0  0  0  0  0  0  0  0  0  0  0  0
    1.2729   -0.3198   -0.4695 N   0  0  0  0  0  0  0  0  0  0  0  0
    1.0931    0.9765    0.0066 C   0  0  0  0  0  0  0  0  0  0  0  0
   -0.1935    1.2493    0.4390 C   0  0  0  0  0  0  0  0  0  0  0  0
   -0.0533   -2.3950   -0.9530 C   0  0  0  0  0  0  0  0  0  0  0  0
    2.2616    1.9109    0.0518 C   0  0  0  0  0  0  0  0  0  0  0  0
    2.3583    2.9510   -1.4446 S   0  0  0  0  0  0  0  0  0  0  0  0
    3.8519    3.9238   -1.0139 C   0  0  0  0  0  0  0  0  0  0  0  0
    4.1899    5.0053   -2.0571 C   0  0  0  0  0  0  0  0  0  0  0  0
    3.0893    5.9421   -2.1882 N   0  0  0  0  0  0  0  0  0  0  0  0
    3.0292    7.3205   -2.2489 C   0  0  0  0  0  0  0  0  0  0  0  0
    1.9194    7.9899   -2.6271 C   0  0  0  0  0  0  0  0  0  0  0  0
    0.6856    7.3569   -3.0252 N   0  3  0  0  0  0  0  0  0  0  0  0
   -0.2399    8.1305   -3.3079 O   0  0  0  0  0  0  0  0  0  0  0  0
    0.6071    6.1226   -3.0710 O   0  5  0  0  0  0  0  0  0  0  0  0
    4.1689    8.0490   -1.9177 N   0  0  0  0  0  0  0  0  0  0  0  0
    4.1976    9.3318   -1.2307 C   0  0  0  0  0  0  0  0  0  0  0  0
   -0.4969   -2.4925   -2.3635 N   0  0  0  0  0  0  0  0  0  0  0  0
    0.5039   -1.9234   -3.2732 C   0  0  0  0  0  0  0  0  0  0  0  0
   -0.7395   -3.8924   -2.7142 C   0  0  0  0  0  0  0  0  0  0  0  0
   -0.5782    2.1632    0.8661 H   0  0  0  0  0  0  0  0  0  0  0  0
    0.8915   -2.9362   -0.8088 H   0  0  0  0  0  0  0  0  0  0  0  0
   -0.7934   -2.8904   -0.3105 H   0  0  0  0  0  0  0  0  0  0  0  0
    2.1786    2.5598    0.9296 H   0  0  0  0  0  0  0  0  0  0  0  0
    3.1876    1.3341    0.1412 H   0  0  0  0  0  0  0  0  0  0  0  0
    3.6853    4.3992   -0.0413 H   0  0  0  0  0  0  0  0  0  0  0  0
    4.6971    3.2342   -0.9237 H   0  0  0  0  0  0  0  0  0  0  0  0
    5.1172    5.4979   -1.7505 H   0  0  0  0  0  0  0  0  0  0  0  0
    4.3879    4.5422   -3.0311 H   0  0  0  0  0  0  0  0  0  0  0  0
    2.2290    5.4717   -2.5037 H   0  0  0  0  0  0  0  0  0  0  0  0
    1.8175    9.0586   -2.7044 H   0  0  0  0  0  0  0  0  0  0  0  0
    4.9238    7.4457   -1.6166 H   0  0  0  0  0  0  0  0  0  0  0  0
    4.1380    9.1807   -0.1482 H   0  0  0  0  0  0  0  0  0  0  0  0
    5.1401    9.8413   -1.4531 H   0  0  0  0  0  0  0  0  0  0  0  0
    3.3872   10.0008   -1.5322 H   0  0  0  0  0  0  0  0  0  0  0  0
    1.4753   -2.4228   -3.1815 H   0  0  0  0  0  0  0  0  0  0  0  0
    0.1687   -2.0159   -4.3129 H   0  0  0  0  0  0  0  0  0  0  0  0
    0.6422   -0.8526   -3.0978 H   0  0  0  0  0  0  0  0  0  0  0  0
    0.1601   -4.5104   -2.6052 H   0  0  0  0  0  0  0  0  0  0  0  0
   -1.5291   -4.3193   -2.0859 H   0  0  0  0  0  0  0  0  0  0  0  0
   -1.0876   -3.9770   -3.7508 H   0  0  0  0  0  0  0  0  0  0  0  0
  1  2  1  0  0  0  0
  2  3  2  0  0  0  0
  2  6  1  0  0  0  0
  3  4  1  0  0  0  0
  4  5  2  0  0  0  0
  4  7  1  0  0  0  0
  5  1  1  0  0  0  0
  5 22  1  0  0  0  0
  6 19  1  0  0  0  0
  6 23  1  0  0  0  0
  6 24  1  0  0  0  0
  7  8  1  0  0  0  0
  7 25  1  0  0  0  0
  7 26  1  0  0  0  0
  8  9  1  0  0  0  0
  9 10  1  0  0  0  0
  9 27  1  0  0  0  0
  9 28  1  0  0  0  0
 10 11  1  0  0  0  0
 10 29  1  0  0  0  0
 10 30  1  0  0  0  0
 11 12  1  0  0  0  0
 11 31  1  0  0  0  0
 12 13  2  0  0  0  0
 12 17  1  0  0  0  0
 13 14  1  0  0  0  0
 13 32  1  0  0  0  0
 14 15  2  0  0  0  0
 14 16  1  0  0  0  0
 17 18  1  0  0  0  0
 17 33  1  0  0  0  0
 18 34  1  0  0  0  0
 18 35  1  0  0  0  0
 18 36  1  0  0  0  0
 19 20  1  0  0  0  0
 19 21  1  0  0  0  0
 20 37  1  0  0  0  0
 20 38  1  0  0  0  0
 20 39  1  0  0  0  0
 21 40  1  0  0  0  0
 21 41  1  0  0  0  0
 21 42  1  0  0  0  0
M  CHG  2  14   1  16  -1
M  END
>  <Mol_ID>
170

>  <Formula>
C12H21N5O2S2

>  <MolWeight>
331.45744

>  <Cat>
S1890

>  <Name>
Nizatidine

>  <Synonyms>
N/A

>  <Target>
Histamine Receptor

>  <Form>
free base

>  <CAS>
76963-41-2

>  <URL>
http://selleckchem.com/products/Nizatidine(Axid).html

$$$$
