NMS-P118.cdx
 OpenBabel08302520433D

 52 55  0  0  0  0  0  0  0  0999 V2000
   -0.5109    0.3907   -0.5238 C   0  0  0  0  0  0  0  0  0  0  0  0
   -0.5954    0.5758    0.8629 C   0  0  0  0  0  0  0  0  0  0  0  0
    0.4352    1.2193    1.5496 C   0  0  0  0  0  0  0  0  0  0  0  0
    1.5451    1.6561    0.7851 C   0  0  0  0  0  0  0  0  0  0  0  0
    1.6066    1.4535   -0.5946 C   0  0  0  0  0  0  0  0  0  0  0  0
    0.5772    0.8189   -1.2685 C   0  0  0  0  0  0  0  0  0  0  0  0
   -1.7281   -0.2704   -1.0510 C   0  0  0  0  0  0  0  0  0  0  0  0
   -2.4923   -0.6041    0.1370 N   0  0  0  0  0  0  0  0  0  0  0  0
   -1.9081    0.0062    1.2634 C   0  0  0  0  0  0  0  0  0  0  0  0
   -2.3850    0.0879    2.3799 O   0  0  0  0  0  0  0  0  0  0  0  0
   -3.9223   -0.9665   -0.0042 C   0  0  3  0  0  0  0  0  0  0  0  0
   -4.5587   -1.7680    1.1285 C   0  0  0  0  0  0  0  0  0  0  0  0
   -4.0742   -3.2128    1.2009 C   0  0  0  0  0  0  0  0  0  0  0  0
   -3.8426   -3.9450   -0.0378 N   0  0  3  0  0  0  0  0  0  0  0  0
   -3.5977   -3.1597   -1.2478 C   0  0  0  0  0  0  0  0  0  0  0  0
   -4.2293   -1.7652   -1.2823 C   0  0  0  0  0  0  0  0  0  0  0  0
   -2.9875   -5.1591    0.0474 C   0  0  0  0  0  0  0  0  0  0  0  0
   -3.4710   -6.2121    1.0723 C   0  0  0  0  0  0  0  0  0  0  0  0
   -3.0736   -5.9270    2.5208 C   0  0  0  0  0  0  0  0  0  0  0  0
   -1.5824   -5.6811    2.6567 C   0  0  0  0  0  0  0  0  0  0  0  0
   -1.0147   -4.6679    1.6782 C   0  0  0  0  0  0  0  0  0  0  0  0
   -1.4635   -4.9328    0.2422 C   0  0  0  0  0  0  0  0  0  0  0  0
    0.5294    1.5066    3.0045 C   0  0  0  0  0  0  0  0  0  0  0  0
    1.5130    2.0764    3.4727 O   0  0  0  0  0  0  0  0  0  0  0  0
   -0.4741    1.1358    3.8397 N   0  0  0  0  0  0  0  0  0  0  0  0
    2.6714    1.8824   -1.2818 F   0  0  0  0  0  0  0  0  0  0  0  0
   -1.3056   -5.2849    3.9246 F   0  0  0  0  0  0  0  0  0  0  0  0
   -0.9342   -6.8641    2.4768 F   0  0  0  0  0  0  0  0  0  0  0  0
    2.3837    2.1664    1.2575 H   0  0  0  0  0  0  0  0  0  0  0  0
    0.6332    0.6752   -2.3410 H   0  0  0  0  0  0  0  0  0  0  0  0
   -2.3011    0.4305   -1.6660 H   0  0  0  0  0  0  0  0  0  0  0  0
   -1.4751   -1.1758   -1.6051 H   0  0  0  0  0  0  0  0  0  0  0  0
   -4.4480   -0.0046   -0.0607 H   0  0  0  0  0  0  0  0  0  0  0  0
   -4.4122   -1.2899    2.1015 H   0  0  0  0  0  0  0  0  0  0  0  0
   -5.6470   -1.7812    0.9701 H   0  0  0  0  0  0  0  0  0  0  0  0
   -3.1845   -3.1932    1.8214 H   0  0  0  0  0  0  0  0  0  0  0  0
   -4.8456   -3.7628    1.7552 H   0  0  0  0  0  0  0  0  0  0  0  0
   -3.9889   -3.7178   -2.1088 H   0  0  0  0  0  0  0  0  0  0  0  0
   -2.5275   -3.0491   -1.4309 H   0  0  0  0  0  0  0  0  0  0  0  0
   -5.3169   -1.8641   -1.3972 H   0  0  0  0  0  0  0  0  0  0  0  0
   -3.8868   -1.2306   -2.1758 H   0  0  0  0  0  0  0  0  0  0  0  0
   -3.0951   -5.6503   -0.9316 H   0  0  0  0  0  0  0  0  0  0  0  0
   -4.5552   -6.3524    0.9966 H   0  0  0  0  0  0  0  0  0  0  0  0
   -3.0259   -7.1785    0.7926 H   0  0  0  0  0  0  0  0  0  0  0  0
   -3.6302   -5.0859    2.9390 H   0  0  0  0  0  0  0  0  0  0  0  0
   -3.3527   -6.7878    3.1399 H   0  0  0  0  0  0  0  0  0  0  0  0
   -1.2581   -3.6484    1.9875 H   0  0  0  0  0  0  0  0  0  0  0  0
    0.0805   -4.7200    1.7164 H   0  0  0  0  0  0  0  0  0  0  0  0
   -0.9505   -5.8432   -0.0999 H   0  0  0  0  0  0  0  0  0  0  0  0
   -1.0836   -4.1356   -0.4037 H   0  0  0  0  0  0  0  0  0  0  0  0
   -1.3450    0.7059    3.5366 H   0  0  0  0  0  0  0  0  0  0  0  0
   -0.3779    1.3649    4.8198 H   0  0  0  0  0  0  0  0  0  0  0  0
  1  2  1  0  0  0  0
  1  7  1  0  0  0  0
  2  3  2  0  0  0  0
  3  4  1  0  0  0  0
  3 23  1  0  0  0  0
  4  5  2  0  0  0  0
  4 29  1  0  0  0  0
  5  6  1  0  0  0  0
  5 26  1  0  0  0  0
  6  1  2  0  0  0  0
  6 30  1  0  0  0  0
  7  8  1  0  0  0  0
  7 31  1  0  0  0  0
  7 32  1  0  0  0  0
  8  9  1  0  0  0  0
  8 11  1  0  0  0  0
  9  2  1  0  0  0  0
  9 10  2  0  0  0  0
 11 12  1  0  0  0  0
 11 33  1  0  0  0  0
 12 13  1  0  0  0  0
 12 34  1  0  0  0  0
 12 35  1  0  0  0  0
 13 14  1  0  0  0  0
 13 36  1  0  0  0  0
 13 37  1  0  0  0  0
 14 15  1  0  0  0  0
 14 17  1  0  0  0  0
 15 16  1  0  0  0  0
 15 38  1  0  0  0  0
 15 39  1  0  0  0  0
 16 11  1  0  0  0  0
 16 40  1  0  0  0  0
 16 41  1  0  0  0  0
 17 18  1  0  0  0  0
 17 42  1  0  0  0  0
 18 19  1  0  0  0  0
 18 43  1  0  0  0  0
 18 44  1  0  0  0  0
 19 20  1  0  0  0  0
 19 45  1  0  0  0  0
 19 46  1  0  0  0  0
 20 21  1  0  0  0  0
 20 27  1  0  0  0  0
 20 28  1  0  0  0  0
 21 22  1  0  0  0  0
 21 47  1  0  0  0  0
 21 48  1  0  0  0  0
 22 17  1  0  0  0  0
 22 49  1  0  0  0  0
 22 50  1  0  0  0  0
 23 24  2  0  0  0  0
 23 25  1  0  0  0  0
 25 51  1  0  0  0  0
 25 52  1  0  0  0  0
M  END
>  <Mol_ID>
4123

>  <Formula>
C20H24F3N3O2

>  <MolWeight>
395.4186696

>  <Cat>
S8363

>  <Name>
NMS-P118

>  <Synonyms>
N/A

>  <Target>
PARP

>  <Form>
free base

>  <CAS>
1262417-51-5

>  <URL>
http://selleckchem.com/products/nms-p118.html

$$$$
