Nocodazole.cdx
 OpenBabel08302521313D

 32 34  0  0  0  0  0  0  0  0999 V2000
    0.9807   -0.4527   -0.1449 C   0  0  0  0  0  0  0  0  0  0  0  0
    0.3119   -0.0794   -1.2715 N   0  0  0  0  0  0  0  0  0  0  0  0
    0.5432   -0.4612    0.9977 O   0  0  0  0  0  0  0  0  0  0  0  0
    2.2022   -0.9151   -0.5179 O   0  0  0  0  0  0  0  0  0  0  0  0
   -1.0486    0.0197   -1.2877 C   0  0  0  0  0  0  0  0  0  0  0  0
   -1.7836   -0.3894   -2.2923 N   0  0  0  0  0  0  0  0  0  0  0  0
   -3.0762   -0.2170   -1.8919 C   0  0  0  0  0  0  0  0  0  0  0  0
   -3.1381    0.4345   -0.6622 C   0  0  0  0  0  0  0  0  0  0  0  0
   -1.8210    0.5382   -0.2790 N   0  0  0  0  0  0  0  0  0  0  0  0
   -4.2642   -0.5830   -2.5360 C   0  0  0  0  0  0  0  0  0  0  0  0
   -5.4874   -0.2238   -1.9563 C   0  0  0  0  0  0  0  0  0  0  0  0
   -5.5330    0.4831   -0.7435 C   0  0  0  0  0  0  0  0  0  0  0  0
   -4.3439    0.8326   -0.0695 C   0  0  0  0  0  0  0  0  0  0  0  0
   -6.8351    0.9463   -0.1675 C   0  0  0  0  0  0  0  0  0  0  0  0
   -6.8153    1.9936    0.4797 O   0  0  0  0  0  0  0  0  0  0  0  0
   -8.0443    0.1659   -0.4011 C   0  0  0  0  0  0  0  0  0  0  0  0
   -8.2119   -1.2031   -0.5171 C   0  0  0  0  0  0  0  0  0  0  0  0
   -9.5644   -1.5681   -0.7823 C   0  0  0  0  0  0  0  0  0  0  0  0
  -10.3934   -0.4704   -0.8311 C   0  0  0  0  0  0  0  0  0  0  0  0
   -9.5452    0.9852   -0.5460 S   0  0  0  0  0  0  0  0  0  0  0  0
    2.9189   -1.6196    0.4954 C   0  0  0  0  0  0  0  0  0  0  0  0
    0.7391   -0.3749   -2.1378 H   0  0  0  0  0  0  0  0  0  0  0  0
   -1.4669    0.9299    0.5857 H   0  0  0  0  0  0  0  0  0  0  0  0
   -4.2226   -1.1221   -3.4762 H   0  0  0  0  0  0  0  0  0  0  0  0
   -6.3959   -0.4803   -2.4955 H   0  0  0  0  0  0  0  0  0  0  0  0
   -4.3654    1.3954    0.8594 H   0  0  0  0  0  0  0  0  0  0  0  0
   -7.4048   -1.9199   -0.4221 H   0  0  0  0  0  0  0  0  0  0  0  0
   -9.9128   -2.5841   -0.9245 H   0  0  0  0  0  0  0  0  0  0  0  0
  -11.4600   -0.4525   -1.0105 H   0  0  0  0  0  0  0  0  0  0  0  0
    3.2360   -0.9367    1.2875 H   0  0  0  0  0  0  0  0  0  0  0  0
    2.3116   -2.4362    0.8992 H   0  0  0  0  0  0  0  0  0  0  0  0
    3.8078   -2.0570    0.0307 H   0  0  0  0  0  0  0  0  0  0  0  0
  1  2  1  0  0  0  0
  1  3  2  0  0  0  0
  1  4  1  0  0  0  0
  2  5  1  0  0  0  0
  2 22  1  0  0  0  0
  4 21  1  0  0  0  0
  5  6  2  0  0  0  0
  5  9  1  0  0  0  0
  6  7  1  0  0  0  0
  7  8  2  0  0  0  0
  7 10  1  0  0  0  0
  8  9  1  0  0  0  0
  8 13  1  0  0  0  0
  9 23  1  0  0  0  0
 10 11  2  0  0  0  0
 10 24  1  0  0  0  0
 11 12  1  0  0  0  0
 11 25  1  0  0  0  0
 12 13  2  0  0  0  0
 12 14  1  0  0  0  0
 13 26  1  0  0  0  0
 14 15  2  0  0  0  0
 14 16  1  0  0  0  0
 16 17  2  0  0  0  0
 16 20  1  0  0  0  0
 17 18  1  0  0  0  0
 17 27  1  0  0  0  0
 18 19  2  0  0  0  0
 18 28  1  0  0  0  0
 19 20  1  0  0  0  0
 19 29  1  0  0  0  0
 21 30  1  0  0  0  0
 21 31  1  0  0  0  0
 21 32  1  0  0  0  0
M  END
>  <Mol_ID>
553

>  <Formula>
C14H11N3O3S

>  <MolWeight>
301.32044

>  <Cat>
S2775

>  <Name>
Nocodazole (R17934)

>  <Synonyms>
Oncodazole, NSC238159

>  <Target>
Apoptosis related,Autophagy,Bcr-Abl,CRISPR/Cas9,Microtubule Associated

>  <Form>
free base

>  <CAS>
31430-18-9

>  <URL>
http://selleckchem.com/products/nocodazole.html

$$$$
