Nomegestrol Acetate
 OpenBabel08302521333D

 57 60  0  0  0  0  0  0  0  0999 V2000
    0.9500   -2.3433    1.9081 C   0  0  0  0  0  0  0  0  0  0  0  0
    3.2698   -0.2069   -0.3019 O   0  0  0  0  0  0  0  0  0  0  0  0
    3.9980    0.8274    0.1878 C   0  0  0  0  0  0  0  0  0  0  0  0
    3.7713    2.0601   -0.6384 C   0  0  0  0  0  0  0  0  0  0  0  0
    4.7141    0.8021    1.1823 O   0  0  0  0  0  0  0  0  0  0  0  0
    3.8737   -1.6973    1.7026 C   0  0  0  0  0  0  0  0  0  0  0  0
    5.1487   -2.4388    1.3911 C   0  0  0  0  0  0  0  0  0  0  0  0
    3.6359   -1.3455    2.8667 O   0  0  0  0  0  0  0  0  0  0  0  0
   -3.5192   -2.8293   -2.6484 C   0  0  0  0  0  0  0  0  0  0  0  0
   -6.6757    0.3697    0.0582 O   0  0  0  0  0  0  0  0  0  0  0  0
    1.3990   -1.2056    0.9306 C   0  0  1  0  0  0  0  0  0  0  0  0
    2.9236   -1.3373    0.5343 C   0  0  1  0  0  0  0  0  0  0  0  0
    0.7312   -1.3664   -0.4668 C   0  0  2  0  0  0  0  0  0  0  0  0
    0.9219    0.1734    1.4693 C   0  0  0  0  0  0  0  0  0  0  0  0
    2.8283   -2.5555   -0.4434 C   0  0  0  0  0  0  0  0  0  0  0  0
   -0.7828   -1.4816   -0.3004 C   0  0  1  0  0  0  0  0  0  0  0  0
    1.5299   -2.4096   -1.2293 C   0  0  0  0  0  0  0  0  0  0  0  0
   -0.6066    0.4303    1.3163 C   0  0  0  0  0  0  0  0  0  0  0  0
   -1.2357   -0.0402   -0.0345 C   0  0  2  0  0  0  0  0  0  0  0  0
   -1.5293   -2.1719   -1.3880 C   0  0  0  0  0  0  0  0  0  0  0  0
   -2.7636    0.0811   -0.0350 C   0  0  2  0  0  0  0  0  0  0  0  0
   -2.8229   -1.9398   -1.6478 C   0  0  0  0  0  0  0  0  0  0  0  0
   -3.5406   -0.8865   -0.9324 C   0  0  0  0  0  0  0  0  0  0  0  0
   -3.2016    1.4927   -0.4361 C   0  0  0  0  0  0  0  0  0  0  0  0
   -4.8741   -0.7102   -0.9984 C   0  0  0  0  0  0  0  0  0  0  0  0
   -4.6569    1.6773   -0.0092 C   0  0  0  0  0  0  0  0  0  0  0  0
   -5.5011    0.4402   -0.2893 C   0  0  0  0  0  0  0  0  0  0  0  0
    1.7377   -2.6882    2.5794 H   0  0  0  0  0  0  0  0  0  0  0  0
    0.1308   -2.0182    2.5594 H   0  0  0  0  0  0  0  0  0  0  0  0
    0.6080   -3.2367    1.3726 H   0  0  0  0  0  0  0  0  0  0  0  0
    3.1330    1.8434   -1.4978 H   0  0  0  0  0  0  0  0  0  0  0  0
    3.2687    2.8129   -0.0215 H   0  0  0  0  0  0  0  0  0  0  0  0
    4.7279    2.4403   -1.0029 H   0  0  0  0  0  0  0  0  0  0  0  0
    5.9225   -1.7347    1.0793 H   0  0  0  0  0  0  0  0  0  0  0  0
    5.0068   -3.1904    0.6114 H   0  0  0  0  0  0  0  0  0  0  0  0
    5.4743   -2.9805    2.2841 H   0  0  0  0  0  0  0  0  0  0  0  0
   -4.4766   -3.2004   -2.2732 H   0  0  0  0  0  0  0  0  0  0  0  0
   -3.6768   -2.2979   -3.5913 H   0  0  0  0  0  0  0  0  0  0  0  0
   -2.9210   -3.7235   -2.8736 H   0  0  0  0  0  0  0  0  0  0  0  0
    0.9236   -0.4419   -1.0367 H   0  0  0  0  0  0  0  0  0  0  0  0
    1.1980    0.2817    2.5257 H   0  0  0  0  0  0  0  0  0  0  0  0
    1.4279    0.9858    0.9399 H   0  0  0  0  0  0  0  0  0  0  0  0
    3.6769   -2.6047   -1.1338 H   0  0  0  0  0  0  0  0  0  0  0  0
    2.7843   -3.5017    0.1116 H   0  0  0  0  0  0  0  0  0  0  0  0
   -1.0350   -2.0763    0.5846 H   0  0  0  0  0  0  0  0  0  0  0  0
    1.0336   -3.3735   -1.3512 H   0  0  0  0  0  0  0  0  0  0  0  0
    1.7486   -2.0241   -2.2347 H   0  0  0  0  0  0  0  0  0  0  0  0
   -0.7978    1.5015    1.4561 H   0  0  0  0  0  0  0  0  0  0  0  0
   -1.1216   -0.0772    2.1420 H   0  0  0  0  0  0  0  0  0  0  0  0
   -0.8533    0.6148   -0.8314 H   0  0  0  0  0  0  0  0  0  0  0  0
   -1.0429   -3.0163   -1.8708 H   0  0  0  0  0  0  0  0  0  0  0  0
   -3.0929   -0.1199    0.9964 H   0  0  0  0  0  0  0  0  0  0  0  0
   -3.1215    1.6261   -1.5251 H   0  0  0  0  0  0  0  0  0  0  0  0
   -2.5832    2.2725    0.0181 H   0  0  0  0  0  0  0  0  0  0  0  0
   -5.5615   -1.3618   -1.5232 H   0  0  0  0  0  0  0  0  0  0  0  0
   -5.1001    2.5321   -0.5291 H   0  0  0  0  0  0  0  0  0  0  0  0
   -4.6847    1.8673    1.0701 H   0  0  0  0  0  0  0  0  0  0  0  0
  1 28  1  0  0  0  0
  1 29  1  0  0  0  0
  1 30  1  0  0  0  0
  2  3  1  0  0  0  0
  3  4  1  0  0  0  0
  3  5  2  0  0  0  0
  4 31  1  0  0  0  0
  4 32  1  0  0  0  0
  4 33  1  0  0  0  0
  6  7  1  0  0  0  0
  6  8  2  0  0  0  0
  7 34  1  0  0  0  0
  7 35  1  0  0  0  0
  7 36  1  0  0  0  0
  9 22  1  0  0  0  0
  9 37  1  0  0  0  0
  9 38  1  0  0  0  0
  9 39  1  0  0  0  0
 10 27  2  0  0  0  0
 11  1  1  1  0  0  0
 11 12  1  0  0  0  0
 11 13  1  0  0  0  0
 11 14  1  0  0  0  0
 12  2  1  6  0  0  0
 12  6  1  0  0  0  0
 12 15  1  0  0  0  0
 13 16  1  0  0  0  0
 13 17  1  0  0  0  0
 13 40  1  6  0  0  0
 14 18  1  0  0  0  0
 14 41  1  0  0  0  0
 14 42  1  0  0  0  0
 15 17  1  0  0  0  0
 15 43  1  0  0  0  0
 15 44  1  0  0  0  0
 16 19  1  0  0  0  0
 16 20  1  0  0  0  0
 16 45  1  1  0  0  0
 17 46  1  0  0  0  0
 17 47  1  0  0  0  0
 18 48  1  0  0  0  0
 18 49  1  0  0  0  0
 19 18  1  0  0  0  0
 19 21  1  0  0  0  0
 19 50  1  6  0  0  0
 20 22  2  0  0  0  0
 20 51  1  0  0  0  0
 21 23  1  0  0  0  0
 21 24  1  0  0  0  0
 21 52  1  1  0  0  0
 22 23  1  0  0  0  0
 23 25  2  0  0  0  0
 24 26  1  0  0  0  0
 24 53  1  0  0  0  0
 24 54  1  0  0  0  0
 25 27  1  0  0  0  0
 25 55  1  0  0  0  0
 26 27  1  0  0  0  0
 26 56  1  0  0  0  0
 26 57  1  0  0  0  0
M  END
>  <Mol_ID>
6325

>  <Formula>
C23H30O4

>  <MolWeight>
370.4819

>  <Cat>
E0707

>  <Name>
Nomegestrol Acetate

>  <Target>
Estrogen/progestogen Receptor

>  <Form>
free base

>  <CAS>
58652-20-3

>  <URL>
http://www.selleckchem.com/products/nomegestrol-acetate.html

$$$$
