Nonanal
 OpenBabel08302521363D

 28 27  0  0  0  0  0  0  0  0999 V2000
    1.1571    0.0943    0.0336 C   0  0  0  0  0  0  0  0  0  0  0  0
    0.6334   -1.2743   -0.4208 C   0  0  0  0  0  0  0  0  0  0  0  0
    0.7152    0.4184    1.4675 C   0  0  0  0  0  0  0  0  0  0  0  0
    0.9853   -1.6485   -1.8668 C   0  0  0  0  0  0  0  0  0  0  0  0
    1.2312    1.7647    1.9993 C   0  0  0  0  0  0  0  0  0  0  0  0
    2.4766   -1.7542   -2.1649 C   0  0  0  0  0  0  0  0  0  0  0  0
    0.7578    2.9752    1.1914 C   0  0  0  0  0  0  0  0  0  0  0  0
    2.7403   -2.1664   -3.5985 C   0  0  0  0  0  0  0  0  0  0  0  0
    1.2792    4.2814    1.7746 C   0  0  0  0  0  0  0  0  0  0  0  0
    1.8696   -2.4344   -4.4253 O   0  0  0  0  0  0  0  0  0  0  0  0
    0.7814    0.8566   -0.6560 H   0  0  0  0  0  0  0  0  0  0  0  0
    2.2513    0.1144   -0.0144 H   0  0  0  0  0  0  0  0  0  0  0  0
    0.9940   -2.0559    0.2581 H   0  0  0  0  0  0  0  0  0  0  0  0
   -0.4620   -1.2704   -0.3407 H   0  0  0  0  0  0  0  0  0  0  0  0
   -0.3793    0.4002    1.5337 H   0  0  0  0  0  0  0  0  0  0  0  0
    1.0819   -0.3699    2.1391 H   0  0  0  0  0  0  0  0  0  0  0  0
    0.5143   -2.6153   -2.0867 H   0  0  0  0  0  0  0  0  0  0  0  0
    0.5271   -0.9249   -2.5505 H   0  0  0  0  0  0  0  0  0  0  0  0
    0.8919    1.8760    3.0364 H   0  0  0  0  0  0  0  0  0  0  0  0
    2.3273    1.7465    2.0292 H   0  0  0  0  0  0  0  0  0  0  0  0
    2.9799   -0.7950   -2.0155 H   0  0  0  0  0  0  0  0  0  0  0  0
    2.9533   -2.4994   -1.5193 H   0  0  0  0  0  0  0  0  0  0  0  0
    1.1077    2.9020    0.1576 H   0  0  0  0  0  0  0  0  0  0  0  0
   -0.3368    3.0029    1.1671 H   0  0  0  0  0  0  0  0  0  0  0  0
    3.8066   -2.2235   -3.8794 H   0  0  0  0  0  0  0  0  0  0  0  0
    2.3729    4.2825    1.8223 H   0  0  0  0  0  0  0  0  0  0  0  0
    0.9688    5.1244    1.1481 H   0  0  0  0  0  0  0  0  0  0  0  0
    0.8899    4.4487    2.7841 H   0  0  0  0  0  0  0  0  0  0  0  0
  1  2  1  0  0  0  0
  1  3  1  0  0  0  0
  1 11  1  0  0  0  0
  1 12  1  0  0  0  0
  2  4  1  0  0  0  0
  2 13  1  0  0  0  0
  2 14  1  0  0  0  0
  3  5  1  0  0  0  0
  3 15  1  0  0  0  0
  3 16  1  0  0  0  0
  4  6  1  0  0  0  0
  4 17  1  0  0  0  0
  4 18  1  0  0  0  0
  5  7  1  0  0  0  0
  5 19  1  0  0  0  0
  5 20  1  0  0  0  0
  6  8  1  0  0  0  0
  6 21  1  0  0  0  0
  6 22  1  0  0  0  0
  7  9  1  0  0  0  0
  7 23  1  0  0  0  0
  7 24  1  0  0  0  0
  8 10  2  0  0  0  0
  8 25  1  0  0  0  0
  9 26  1  0  0  0  0
  9 27  1  0  0  0  0
  9 28  1  0  0  0  0
M  END
>  <Mol_ID>
7080

>  <Formula>
C9H18O

>  <MolWeight>
142.23862

>  <Cat>
E4095

>  <Name>
Nonanal

>  <Synonyms>
Nonanal

>  <Target>
Others

>  <Form>
Free base

>  <CAS>
124-19-6

>  <URL>
https://www.selleckchem.com/products/nonanal.html

$$$$
