Nordihydrocapsaicin
 OpenBabel08302521463D

 48 48  0  0  0  0  0  0  0  0999 V2000
    1.1170   -0.9676   -0.3617 C   0  0  0  0  0  0  0  0  0  0  0  0
    0.7897   -0.2410   -1.5727 N   0  0  0  0  0  0  0  0  0  0  0  0
   -0.5021    0.0148   -1.9641 C   0  0  0  0  0  0  0  0  0  0  0  0
   -0.6321    0.7019   -3.3083 C   0  0  0  0  0  0  0  0  0  0  0  0
   -1.4865   -0.3015   -1.2986 O   0  0  0  0  0  0  0  0  0  0  0  0
   -0.1601   -0.1671   -4.4760 C   0  0  0  0  0  0  0  0  0  0  0  0
   -0.9219   -1.4889   -4.6243 C   0  0  0  0  0  0  0  0  0  0  0  0
   -2.4212   -1.3584   -4.9060 C   0  0  0  0  0  0  0  0  0  0  0  0
   -2.7768   -0.6198   -6.2022 C   0  0  0  0  0  0  0  0  0  0  0  0
   -2.2033   -1.2445   -7.4883 C   0  0  0  0  0  0  0  0  0  0  0  0
   -2.7227   -2.6641   -7.7189 C   0  0  0  0  0  0  0  0  0  0  0  0
   -2.5432   -0.3642   -8.6930 C   0  0  0  0  0  0  0  0  0  0  0  0
    1.2319   -5.4492   -2.5521 O   0  0  0  0  0  0  0  0  0  0  0  0
   -0.1094   -5.2636   -2.9918 C   0  0  0  0  0  0  0  0  0  0  0  0
    3.7918   -5.7349   -1.8418 O   0  0  0  0  0  0  0  0  0  0  0  0
    1.8069   -2.2720   -0.6860 C   0  0  0  0  0  0  0  0  0  0  0  0
    1.1164   -3.2749   -1.3930 C   0  0  0  0  0  0  0  0  0  0  0  0
    3.1421   -2.4946   -0.3128 C   0  0  0  0  0  0  0  0  0  0  0  0
    1.7714   -4.4403   -1.7974 C   0  0  0  0  0  0  0  0  0  0  0  0
    3.7925   -3.6743   -0.6800 C   0  0  0  0  0  0  0  0  0  0  0  0
    3.1102   -4.6179   -1.4355 C   0  0  0  0  0  0  0  0  0  0  0  0
    0.2232   -1.1569    0.2425 H   0  0  0  0  0  0  0  0  0  0  0  0
    1.7796   -0.3156    0.2170 H   0  0  0  0  0  0  0  0  0  0  0  0
    1.5555    0.0539   -2.1643 H   0  0  0  0  0  0  0  0  0  0  0  0
   -1.6761    1.0049   -3.4482 H   0  0  0  0  0  0  0  0  0  0  0  0
   -0.0455    1.6286   -3.2777 H   0  0  0  0  0  0  0  0  0  0  0  0
   -0.2319    0.4112   -5.4048 H   0  0  0  0  0  0  0  0  0  0  0  0
    0.9037   -0.4007   -4.3496 H   0  0  0  0  0  0  0  0  0  0  0  0
   -0.4475   -2.0811   -5.4156 H   0  0  0  0  0  0  0  0  0  0  0  0
   -0.7995   -2.0741   -3.7075 H   0  0  0  0  0  0  0  0  0  0  0  0
   -2.8607   -2.3628   -4.9251 H   0  0  0  0  0  0  0  0  0  0  0  0
   -2.9091   -0.8471   -4.0679 H   0  0  0  0  0  0  0  0  0  0  0  0
   -3.8712   -0.5770   -6.2799 H   0  0  0  0  0  0  0  0  0  0  0  0
   -2.4422    0.4215   -6.1227 H   0  0  0  0  0  0  0  0  0  0  0  0
   -1.1103   -1.2843   -7.4173 H   0  0  0  0  0  0  0  0  0  0  0  0
   -3.8171   -2.6828   -7.7648 H   0  0  0  0  0  0  0  0  0  0  0  0
   -2.3380   -3.0709   -8.6600 H   0  0  0  0  0  0  0  0  0  0  0  0
   -2.4038   -3.3416   -6.9207 H   0  0  0  0  0  0  0  0  0  0  0  0
   -2.1357    0.6441   -8.5642 H   0  0  0  0  0  0  0  0  0  0  0  0
   -2.1152   -0.7808   -9.6110 H   0  0  0  0  0  0  0  0  0  0  0  0
   -3.6266   -0.2786   -8.8317 H   0  0  0  0  0  0  0  0  0  0  0  0
   -0.8054   -5.3508   -2.1518 H   0  0  0  0  0  0  0  0  0  0  0  0
   -0.2345   -4.3107   -3.5135 H   0  0  0  0  0  0  0  0  0  0  0  0
   -0.3412   -6.0551   -3.7111 H   0  0  0  0  0  0  0  0  0  0  0  0
    3.1560   -6.2302   -2.3940 H   0  0  0  0  0  0  0  0  0  0  0  0
    0.0694   -3.1050   -1.6244 H   0  0  0  0  0  0  0  0  0  0  0  0
    3.6888   -1.7506    0.2615 H   0  0  0  0  0  0  0  0  0  0  0  0
    4.8263   -3.8458   -0.3999 H   0  0  0  0  0  0  0  0  0  0  0  0
  1  2  1  0  0  0  0
  1 16  1  0  0  0  0
  1 22  1  0  0  0  0
  1 23  1  0  0  0  0
  2  3  1  0  0  0  0
  2 24  1  0  0  0  0
  3  4  1  0  0  0  0
  3  5  2  0  0  0  0
  4  6  1  0  0  0  0
  4 25  1  0  0  0  0
  4 26  1  0  0  0  0
  6  7  1  0  0  0  0
  6 27  1  0  0  0  0
  6 28  1  0  0  0  0
  7  8  1  0  0  0  0
  7 29  1  0  0  0  0
  7 30  1  0  0  0  0
  8  9  1  0  0  0  0
  8 31  1  0  0  0  0
  8 32  1  0  0  0  0
  9 10  1  0  0  0  0
  9 33  1  0  0  0  0
  9 34  1  0  0  0  0
 10 11  1  0  0  0  0
 10 12  1  0  0  0  0
 10 35  1  0  0  0  0
 11 36  1  0  0  0  0
 11 37  1  0  0  0  0
 11 38  1  0  0  0  0
 12 39  1  0  0  0  0
 12 40  1  0  0  0  0
 12 41  1  0  0  0  0
 13 14  1  0  0  0  0
 13 19  1  0  0  0  0
 14 42  1  0  0  0  0
 14 43  1  0  0  0  0
 14 44  1  0  0  0  0
 15 21  1  0  0  0  0
 15 45  1  0  0  0  0
 16 17  2  0  0  0  0
 16 18  1  0  0  0  0
 17 19  1  0  0  0  0
 17 46  1  0  0  0  0
 18 20  2  0  0  0  0
 18 47  1  0  0  0  0
 19 21  2  0  0  0  0
 20 21  1  0  0  0  0
 20 48  1  0  0  0  0
M  END
>  <Mol_ID>
9645

>  <Formula>
C17H27NO3

>  <MolWeight>
293.40118

>  <Cat>
E2104

>  <Name>
Nordihydrocapsaicin

>  <Synonyms>
NA

>  <Target>
anti-inflammation

>  <Form>
Free Base

>  <CAS>
28789-35-7

>  <URL>
https://www.selleckchem.com/products/nordihydrocapsaicin.html

$$$$
