Norharmane
 OpenBabel08302521343D

 21 23  0  0  0  0  0  0  0  0999 V2000
    0.7599   -0.4969   -0.0051 C   0  0  0  0  0  0  0  0  0  0  0  0
   -0.6710   -0.5106   -0.0004 C   0  0  0  0  0  0  0  0  0  0  0  0
   -1.1002    0.8150   -0.0037 C   0  0  0  0  0  0  0  0  0  0  0  0
    0.0240    1.6057   -0.0028 N   0  0  0  0  0  0  0  0  0  0  0  0
    1.1648    0.8378    0.0041 C   0  0  0  0  0  0  0  0  0  0  0  0
   -1.6417   -1.5234    0.0093 C   0  0  0  0  0  0  0  0  0  0  0  0
   -2.9665   -1.1127    0.0138 C   0  0  0  0  0  0  0  0  0  0  0  0
   -3.3751    0.1751    0.0045 N   0  0  0  0  0  0  0  0  0  0  0  0
   -2.4459    1.1573   -0.0055 C   0  0  0  0  0  0  0  0  0  0  0  0
    2.5107    1.2222    0.0181 C   0  0  0  0  0  0  0  0  0  0  0  0
    3.4733    0.2080    0.0164 C   0  0  0  0  0  0  0  0  0  0  0  0
    3.1018   -1.1343   -0.0011 C   0  0  0  0  0  0  0  0  0  0  0  0
    1.7510   -1.5005   -0.0113 C   0  0  0  0  0  0  0  0  0  0  0  0
    0.0160    2.6150   -0.0024 H   0  0  0  0  0  0  0  0  0  0  0  0
   -1.3776   -2.5731    0.0177 H   0  0  0  0  0  0  0  0  0  0  0  0
   -3.7691   -1.8454    0.0266 H   0  0  0  0  0  0  0  0  0  0  0  0
   -2.8075    2.1779   -0.0127 H   0  0  0  0  0  0  0  0  0  0  0  0
    2.8052    2.2666    0.0307 H   0  0  0  0  0  0  0  0  0  0  0  0
    4.5286    0.4725    0.0282 H   0  0  0  0  0  0  0  0  0  0  0  0
    3.8669   -1.9066   -0.0056 H   0  0  0  0  0  0  0  0  0  0  0  0
    1.4715   -2.5497   -0.0232 H   0  0  0  0  0  0  0  0  0  0  0  0
  1  2  1  0  0  0  0
  2  3  2  0  0  0  0
  2  6  1  0  0  0  0
  3  4  1  0  0  0  0
  4  5  1  0  0  0  0
  4 14  1  0  0  0  0
  5  1  2  0  0  0  0
  5 10  1  0  0  0  0
  6  7  2  0  0  0  0
  6 15  1  0  0  0  0
  7  8  1  0  0  0  0
  7 16  1  0  0  0  0
  8  9  2  0  0  0  0
  9  3  1  0  0  0  0
  9 17  1  0  0  0  0
 10 11  2  0  0  0  0
 10 18  1  0  0  0  0
 11 12  1  0  0  0  0
 11 19  1  0  0  0  0
 12 13  2  0  0  0  0
 12 20  1  0  0  0  0
 13  1  1  0  0  0  0
 13 21  1  0  0  0  0
M  END
>  <Mol_ID>
6474

>  <Formula>
C11H8N2

>  <MolWeight>
168.19462

>  <Cat>
E2632

>  <Name>
Norharmane

>  <Synonyms>
Norharman, ¦Â-Carboline

>  <Target>
MAO

>  <Form>
free base

>  <CAS>
244-63-3

>  <URL>
http://www.selleckchem.com/products/norharmane.html

$$$$
