NS-398 (NS398).cdx
 OpenBabel08302520433D

 39 40  0  0  0  0  0  0  0  0999 V2000
    1.4328   -0.1599   -0.0905 C   0  0  0  0  0  0  0  0  0  0  0  0
    0.6983   -1.3479   -0.1694 C   0  0  0  0  0  0  0  0  0  0  0  0
   -0.6976   -1.2998   -0.0977 C   0  0  0  0  0  0  0  0  0  0  0  0
   -1.3592   -0.0793    0.0706 C   0  0  0  0  0  0  0  0  0  0  0  0
   -0.6230    1.0997    0.2235 C   0  0  0  0  0  0  0  0  0  0  0  0
    0.7776    1.0637    0.0806 C   0  0  0  0  0  0  0  0  0  0  0  0
    1.5729    2.2615    0.1285 N   0  0  0  0  0  0  0  0  0  0  0  0
   -1.4911   -2.5311   -0.1881 N   0  3  0  0  0  0  0  0  0  0  0  0
   -0.8764   -3.6058   -0.2722 O   0  0  0  0  0  0  0  0  0  0  0  0
   -2.7240   -2.4291   -0.1734 O   0  5  0  0  0  0  0  0  0  0  0  0
   -1.2245    2.3095    0.4701 O   0  0  0  0  0  0  0  0  0  0  0  0
   -2.3388    2.2751    1.3904 C   0  0  0  0  0  0  0  0  0  0  0  0
    1.9010    2.8789    1.6768 S   0  0  0  0  0  0  0  0  0  0  0  0
    1.4002    4.2389    1.6715 O   0  0  0  0  0  0  0  0  0  0  0  0
    1.5219    1.9221    2.6916 O   0  0  0  0  0  0  0  0  0  0  0  0
    3.6785    2.9654    1.6501 C   0  0  0  0  0  0  0  0  0  0  0  0
   -3.1086    3.5912    1.2429 C   0  0  0  0  0  0  0  0  0  0  0  0
   -4.2316    3.7074    2.2703 C   0  0  0  0  0  0  0  0  0  0  0  0
   -3.6962    3.5478    3.6890 C   0  0  0  0  0  0  0  0  0  0  0  0
   -2.9844    2.2099    3.8530 C   0  0  0  0  0  0  0  0  0  0  0  0
   -1.8601    2.0529    2.8335 C   0  0  0  0  0  0  0  0  0  0  0  0
    2.5170   -0.1930   -0.1757 H   0  0  0  0  0  0  0  0  0  0  0  0
    1.2235   -2.2930   -0.2974 H   0  0  0  0  0  0  0  0  0  0  0  0
   -2.4437   -0.0591    0.0697 H   0  0  0  0  0  0  0  0  0  0  0  0
    1.1135    3.0212   -0.3856 H   0  0  0  0  0  0  0  0  0  0  0  0
   -3.0545    1.4899    1.1264 H   0  0  0  0  0  0  0  0  0  0  0  0
    4.0863    1.9538    1.6146 H   0  0  0  0  0  0  0  0  0  0  0  0
    4.0064    3.5556    0.7932 H   0  0  0  0  0  0  0  0  0  0  0  0
    3.9999    3.4567    2.5740 H   0  0  0  0  0  0  0  0  0  0  0  0
   -2.4225    4.4419    1.3322 H   0  0  0  0  0  0  0  0  0  0  0  0
   -3.5298    3.6497    0.2311 H   0  0  0  0  0  0  0  0  0  0  0  0
   -4.7313    4.6764    2.1669 H   0  0  0  0  0  0  0  0  0  0  0  0
   -4.9881    2.9355    2.0782 H   0  0  0  0  0  0  0  0  0  0  0  0
   -2.9979    4.3642    3.9112 H   0  0  0  0  0  0  0  0  0  0  0  0
   -4.5182    3.6216    4.4091 H   0  0  0  0  0  0  0  0  0  0  0  0
   -2.5770    2.1284    4.8672 H   0  0  0  0  0  0  0  0  0  0  0  0
   -3.7068    1.3927    3.7337 H   0  0  0  0  0  0  0  0  0  0  0  0
   -1.4264    1.0506    2.9349 H   0  0  0  0  0  0  0  0  0  0  0  0
   -1.0532    2.7562    3.0673 H   0  0  0  0  0  0  0  0  0  0  0  0
  1  2  2  0  0  0  0
  1 22  1  0  0  0  0
  2  3  1  0  0  0  0
  2 23  1  0  0  0  0
  3  4  2  0  0  0  0
  3  8  1  0  0  0  0
  4  5  1  0  0  0  0
  4 24  1  0  0  0  0
  5  6  2  0  0  0  0
  5 11  1  0  0  0  0
  6  1  1  0  0  0  0
  6  7  1  0  0  0  0
  7 13  1  0  0  0  0
  7 25  1  0  0  0  0
  8  9  2  0  0  0  0
  8 10  1  0  0  0  0
 11 12  1  0  0  0  0
 12 17  1  0  0  0  0
 12 26  1  0  0  0  0
 13 14  2  0  0  0  0
 13 15  2  0  0  0  0
 13 16  1  0  0  0  0
 16 27  1  0  0  0  0
 16 28  1  0  0  0  0
 16 29  1  0  0  0  0
 17 18  1  0  0  0  0
 17 30  1  0  0  0  0
 17 31  1  0  0  0  0
 18 19  1  0  0  0  0
 18 32  1  0  0  0  0
 18 33  1  0  0  0  0
 19 20  1  0  0  0  0
 19 34  1  0  0  0  0
 19 35  1  0  0  0  0
 20 21  1  0  0  0  0
 20 36  1  0  0  0  0
 20 37  1  0  0  0  0
 21 12  1  0  0  0  0
 21 38  1  0  0  0  0
 21 39  1  0  0  0  0
M  CHG  2   8   1  10  -1
M  END
>  <Mol_ID>
4083

>  <Formula>
C13H18N2O5S

>  <MolWeight>
314.35742

>  <Cat>
S8433

>  <Name>
NS-398 (NS398)

>  <Synonyms>
N-(2-cyclohexyloxy-4-nitrophenyl)methane sulfonamide

>  <Target>
COX

>  <Form>
free base

>  <CAS>
123653-11-2

>  <URL>
http://selleckchem.com/products/ns-398-ns398.html

$$$$
