NS1652
 OpenBabel08302521323D

 34 35  0  0  0  0  0  0  0  0999 V2000
    0.1547    1.4074    1.4542 C   0  0  0  0  0  0  0  0  0  0  0  0
    1.6195    1.2211    1.2528 C   0  0  0  0  0  0  0  0  0  0  0  0
    2.3453    0.1033    1.6885 C   0  0  0  0  0  0  0  0  0  0  0  0
    3.6930   -0.0121    1.3136 C   0  0  0  0  0  0  0  0  0  0  0  0
    4.3380    0.9918    0.6012 C   0  0  0  0  0  0  0  0  0  0  0  0
    3.6453    2.1491    0.2651 C   0  0  0  0  0  0  0  0  0  0  0  0
    2.2867    2.2598    0.5752 C   0  0  0  0  0  0  0  0  0  0  0  0
   -0.5620    1.9864    0.6622 O   0  0  0  0  0  0  0  0  0  0  0  0
   -0.3052    0.8521    2.5984 O   0  0  0  0  0  0  0  0  0  0  0  0
    1.7721   -0.9040    2.5264 N   0  0  0  0  0  0  0  0  0  0  0  0
    2.4337   -1.3223    3.6779 C   0  0  0  0  0  0  0  0  0  0  0  0
    3.5544   -0.9193    3.9859 O   0  0  0  0  0  0  0  0  0  0  0  0
    1.6697   -2.1851    4.4391 N   0  0  0  0  0  0  0  0  0  0  0  0
    2.0645   -2.8118    5.6473 C   0  0  0  0  0  0  0  0  0  0  0  0
    3.2529   -2.5253    6.3332 C   0  0  0  0  0  0  0  0  0  0  0  0
    3.6536   -3.2850    7.4478 C   0  0  0  0  0  0  0  0  0  0  0  0
    2.8178   -4.3114    7.9072 C   0  0  0  0  0  0  0  0  0  0  0  0
    1.6031   -4.5615    7.2731 C   0  0  0  0  0  0  0  0  0  0  0  0
    1.2276   -3.8142    6.1529 C   0  0  0  0  0  0  0  0  0  0  0  0
    4.9853   -3.0443    8.1189 C   0  0  0  0  0  0  0  0  0  0  0  0
    5.6968   -2.0114    7.5903 F   0  0  0  0  0  0  0  0  0  0  0  0
    4.8580   -2.7679    9.4471 F   0  0  0  0  0  0  0  0  0  0  0  0
    5.8011   -4.1340    8.0452 F   0  0  0  0  0  0  0  0  0  0  0  0
    4.2645   -0.9070    1.5822 H   0  0  0  0  0  0  0  0  0  0  0  0
    5.3811    0.8766    0.3230 H   0  0  0  0  0  0  0  0  0  0  0  0
    4.1561    2.9592   -0.2467 H   0  0  0  0  0  0  0  0  0  0  0  0
    1.7521    3.1650    0.2956 H   0  0  0  0  0  0  0  0  0  0  0  0
    0.3924    0.7794    3.2785 H   0  0  0  0  0  0  0  0  0  0  0  0
    0.7595   -1.0065    2.5046 H   0  0  0  0  0  0  0  0  0  0  0  0
    0.8163   -2.5264    4.0201 H   0  0  0  0  0  0  0  0  0  0  0  0
    3.9100   -1.7226    6.0095 H   0  0  0  0  0  0  0  0  0  0  0  0
    3.1199   -4.9248    8.7544 H   0  0  0  0  0  0  0  0  0  0  0  0
    0.9573   -5.3580    7.6357 H   0  0  0  0  0  0  0  0  0  0  0  0
    0.2847   -4.0501    5.6676 H   0  0  0  0  0  0  0  0  0  0  0  0
  1  2  1  0  0  0  0
  1  8  2  0  0  0  0
  1  9  1  0  0  0  0
  2  3  2  0  0  0  0
  2  7  1  0  0  0  0
  3  4  1  0  0  0  0
  3 10  1  0  0  0  0
  4  5  2  0  0  0  0
  4 24  1  0  0  0  0
  5  6  1  0  0  0  0
  5 25  1  0  0  0  0
  6  7  2  0  0  0  0
  6 26  1  0  0  0  0
  7 27  1  0  0  0  0
  9 28  1  0  0  0  0
 10 11  1  0  0  0  0
 10 29  1  0  0  0  0
 11 12  2  0  0  0  0
 11 13  1  0  0  0  0
 13 14  1  0  0  0  0
 13 30  1  0  0  0  0
 14 15  2  0  0  0  0
 14 19  1  0  0  0  0
 15 16  1  0  0  0  0
 15 31  1  0  0  0  0
 16 17  2  0  0  0  0
 16 20  1  0  0  0  0
 17 18  1  0  0  0  0
 17 32  1  0  0  0  0
 18 19  2  0  0  0  0
 18 33  1  0  0  0  0
 19 34  1  0  0  0  0
 20 21  1  0  0  0  0
 20 22  1  0  0  0  0
 20 23  1  0  0  0  0
M  END
>  <Mol_ID>
6210

>  <Formula>
C15H11F3N2O3

>  <MolWeight>
324.2546496

>  <Cat>
S2955

>  <Name>
NS1652

>  <Synonyms>
N/A

>  <Target>
Chloride Channel,VRAC

>  <Form>
free base

>  <CAS>
1566-81-0

>  <URL>
http://www.selleckchem.com/products/ns1652.html

$$$$
