NSC16168
 OpenBabel08302521453D

 45 47  0  0  0  0  0  0  0  0999 V2000
    0.9418    0.0603   -0.1994 O   0  0  0  0  0  0  0  0  0  0  0  0
   -0.0449    1.0974   -0.9871 S   0  0  0  0  0  0  0  0  0  0  0  0
   -0.9519    1.6764   -0.0074 O   0  0  0  0  0  0  0  0  0  0  0  0
    0.6820    1.8870   -1.9654 O   0  0  0  0  0  0  0  0  0  0  0  0
    1.3497    3.0853    0.4832 N   0  0  0  0  0  0  0  0  0  0  0  0
    5.1264   -2.7613    0.0605 S   0  0  0  0  0  0  0  0  0  0  0  0
    5.9216   -2.8149    1.2675 O   0  0  0  0  0  0  0  0  0  0  0  0
    4.1621   -3.7914   -0.2565 O   0  0  0  0  0  0  0  0  0  0  0  0
    6.1642   -2.7207   -1.1753 O   0  0  0  0  0  0  0  0  0  0  0  0
    6.0101    4.9935   -0.0928 S   0  0  0  0  0  0  0  0  0  0  0  0
    5.7579    5.8041    1.0834 O   0  0  0  0  0  0  0  0  0  0  0  0
    7.3439    4.5329   -0.4144 O   0  0  0  0  0  0  0  0  0  0  0  0
    5.5138    5.8570   -1.3636 O   0  0  0  0  0  0  0  0  0  0  0  0
   -3.4552   -1.7614   -5.0851 C   0  0  0  0  0  0  0  0  0  0  0  0
    4.5302    1.2235   -0.0334 C   0  0  0  0  0  0  0  0  0  0  0  0
    3.1074    1.3966   -0.0022 C   0  0  0  0  0  0  0  0  0  0  0  0
    5.1122   -0.0471   -0.0224 C   0  0  0  0  0  0  0  0  0  0  0  0
    5.4093    2.3152   -0.0601 C   0  0  0  0  0  0  0  0  0  0  0  0
    2.3179    0.1892   -0.0835 C   0  0  0  0  0  0  0  0  0  0  0  0
    2.6617    2.7624    0.1087 C   0  0  0  0  0  0  0  0  0  0  0  0
    4.3207   -1.1868    0.0068 C   0  0  0  0  0  0  0  0  0  0  0  0
    4.9183    3.6123   -0.0449 C   0  0  0  0  0  0  0  0  0  0  0  0
    2.9354   -1.0800   -0.0362 C   0  0  0  0  0  0  0  0  0  0  0  0
    3.5582    3.8400    0.0558 C   0  0  0  0  0  0  0  0  0  0  0  0
   -1.0988    0.1086   -2.0310 C   0  0  0  0  0  0  0  0  0  0  0  0
   -2.3692    0.6167   -2.3344 C   0  0  0  0  0  0  0  0  0  0  0  0
   -0.6046   -1.0240   -2.6729 C   0  0  0  0  0  0  0  0  0  0  0  0
   -3.1417    0.0036   -3.3169 C   0  0  0  0  0  0  0  0  0  0  0  0
   -1.3882   -1.6344   -3.6555 C   0  0  0  0  0  0  0  0  0  0  0  0
   -2.6521   -1.1200   -3.9917 C   0  0  0  0  0  0  0  0  0  0  0  0
    1.1105    2.8451    1.4411 H   0  0  0  0  0  0  0  0  0  0  0  0
    1.0607    4.0331    0.2562 H   0  0  0  0  0  0  0  0  0  0  0  0
    6.6588   -3.5665   -1.1912 H   0  0  0  0  0  0  0  0  0  0  0  0
    6.0889    6.6460   -1.4411 H   0  0  0  0  0  0  0  0  0  0  0  0
   -2.8974   -1.7355   -6.0268 H   0  0  0  0  0  0  0  0  0  0  0  0
   -3.6799   -2.7996   -4.8239 H   0  0  0  0  0  0  0  0  0  0  0  0
   -4.4050   -1.2400   -5.2456 H   0  0  0  0  0  0  0  0  0  0  0  0
    6.1969   -0.1582   -0.0146 H   0  0  0  0  0  0  0  0  0  0  0  0
    6.4870    2.1558   -0.0913 H   0  0  0  0  0  0  0  0  0  0  0  0
    2.3241   -1.9819   -0.0418 H   0  0  0  0  0  0  0  0  0  0  0  0
    3.1877    4.8614    0.1156 H   0  0  0  0  0  0  0  0  0  0  0  0
   -2.7362    1.5202   -1.8500 H   0  0  0  0  0  0  0  0  0  0  0  0
    0.3933   -1.3993   -2.4678 H   0  0  0  0  0  0  0  0  0  0  0  0
   -4.1089    0.4304   -3.5742 H   0  0  0  0  0  0  0  0  0  0  0  0
   -0.9953   -2.4962   -4.1915 H   0  0  0  0  0  0  0  0  0  0  0  0
  1  2  1  0  0  0  0
  1 19  1  0  0  0  0
  2  3  2  0  0  0  0
  2  4  2  0  0  0  0
  2 25  1  0  0  0  0
  5 20  1  0  0  0  0
  5 31  1  0  0  0  0
  5 32  1  0  0  0  0
  6  7  2  0  0  0  0
  6  8  2  0  0  0  0
  6  9  1  0  0  0  0
  6 21  1  0  0  0  0
  9 33  1  0  0  0  0
 10 11  2  0  0  0  0
 10 12  2  0  0  0  0
 10 13  1  0  0  0  0
 10 22  1  0  0  0  0
 13 34  1  0  0  0  0
 14 30  1  0  0  0  0
 14 35  1  0  0  0  0
 14 36  1  0  0  0  0
 14 37  1  0  0  0  0
 15 16  1  0  0  0  0
 15 17  2  0  0  0  0
 15 18  1  0  0  0  0
 16 19  2  0  0  0  0
 16 20  1  0  0  0  0
 17 21  1  0  0  0  0
 17 38  1  0  0  0  0
 18 22  2  0  0  0  0
 18 39  1  0  0  0  0
 19 23  1  0  0  0  0
 20 24  2  0  0  0  0
 21 23  2  0  0  0  0
 22 24  1  0  0  0  0
 23 40  1  0  0  0  0
 24 41  1  0  0  0  0
 25 26  2  0  0  0  0
 25 27  1  0  0  0  0
 26 28  1  0  0  0  0
 26 42  1  0  0  0  0
 27 29  2  0  0  0  0
 27 43  1  0  0  0  0
 28 30  2  0  0  0  0
 28 44  1  0  0  0  0
 29 30  1  0  0  0  0
 29 45  1  0  0  0  0
M  END
>  <Mol_ID>
9478

>  <Formula>
C17H15NO9S3

>  <MolWeight>
473.4973

>  <Cat>
E1723

>  <Name>
NSC16168

>  <Target>
Others

>  <Form>
Free base

>  <CAS>
6837-93-0

>  <URL>
https://www.selleckchem.com/products/nsc16168.html

$$$$
