NSC319726.cdx
 OpenBabel08302519563D

 30 31  0  0  0  0  0  0  0  0999 V2000
    1.1892    0.1914   -0.3837 C   0  0  0  0  0  0  0  0  0  0  0  0
    0.4057    1.2695   -0.7553 C   0  0  0  0  0  0  0  0  0  0  0  0
   -0.9713    1.0864   -0.8294 C   0  0  0  0  0  0  0  0  0  0  0  0
   -1.5173   -0.1605   -0.5258 C   0  0  0  0  0  0  0  0  0  0  0  0
   -0.6551   -1.1847   -0.1550 C   0  0  0  0  0  0  0  0  0  0  0  0
    0.6938   -1.0285   -0.0861 N   0  0  0  0  0  0  0  0  0  0  0  0
   -1.1669   -2.5625    0.1526 C   0  0  0  0  0  0  0  0  0  0  0  0
   -2.4452   -2.8172    0.0355 N   0  0  0  0  0  0  0  0  0  0  0  0
   -0.1074   -3.5919    0.5096 C   0  0  0  0  0  0  0  0  0  0  0  0
   -2.8767   -4.0972    0.2110 N   0  0  0  0  0  0  0  0  0  0  0  0
   -4.1707   -4.5072   -0.0821 C   0  0  0  0  0  0  0  0  0  0  0  0
   -4.2200   -5.8629   -0.3979 N   0  0  0  0  0  0  0  0  0  0  0  0
   -5.5097   -3.5000   -0.0758 S   0  0  0  0  0  0  0  0  0  0  0  0
   -5.2870   -6.6329   -1.0488 C   0  0  0  0  0  0  0  0  0  0  0  0
   -4.2454   -6.9616   -2.1260 C   0  0  0  0  0  0  0  0  0  0  0  0
   -3.1764   -6.6483   -1.0750 C   0  0  0  0  0  0  0  0  0  0  0  0
    2.2700    0.2812   -0.3156 H   0  0  0  0  0  0  0  0  0  0  0  0
    0.8589    2.2271   -0.9862 H   0  0  0  0  0  0  0  0  0  0  0  0
   -1.6170    1.9090   -1.1253 H   0  0  0  0  0  0  0  0  0  0  0  0
   -2.5892   -0.3235   -0.5880 H   0  0  0  0  0  0  0  0  0  0  0  0
    0.3459   -3.9677   -0.4108 H   0  0  0  0  0  0  0  0  0  0  0  0
    0.6732   -3.1430    1.1370 H   0  0  0  0  0  0  0  0  0  0  0  0
   -0.4997   -4.4280    1.0849 H   0  0  0  0  0  0  0  0  0  0  0  0
   -2.2169   -4.8296    0.4252 H   0  0  0  0  0  0  0  0  0  0  0  0
   -5.6078   -7.4856   -0.4405 H   0  0  0  0  0  0  0  0  0  0  0  0
   -6.1556   -6.0786   -1.4054 H   0  0  0  0  0  0  0  0  0  0  0  0
   -4.2511   -7.9841   -2.5103 H   0  0  0  0  0  0  0  0  0  0  0  0
   -4.2501   -6.2626   -2.9718 H   0  0  0  0  0  0  0  0  0  0  0  0
   -2.3212   -6.0830   -1.4536 H   0  0  0  0  0  0  0  0  0  0  0  0
   -2.8369   -7.4956   -0.4719 H   0  0  0  0  0  0  0  0  0  0  0  0
  1  2  2  0  0  0  0
  1 17  1  0  0  0  0
  2  3  1  0  0  0  0
  2 18  1  0  0  0  0
  3  4  2  0  0  0  0
  3 19  1  0  0  0  0
  4  5  1  0  0  0  0
  4 20  1  0  0  0  0
  5  6  2  0  0  0  0
  5  7  1  0  0  0  0
  6  1  1  0  0  0  0
  7  8  2  0  0  0  0
  7  9  1  0  0  0  0
  8 10  1  0  0  0  0
  9 21  1  0  0  0  0
  9 22  1  0  0  0  0
  9 23  1  0  0  0  0
 10 11  1  0  0  0  0
 10 24  1  0  0  0  0
 11 12  1  0  0  0  0
 11 13  2  0  0  0  0
 12 14  1  0  0  0  0
 14 15  1  0  0  0  0
 14 25  1  0  0  0  0
 14 26  1  0  0  0  0
 15 16  1  0  0  0  0
 15 27  1  0  0  0  0
 15 28  1  0  0  0  0
 16 12  1  0  0  0  0
 16 29  1  0  0  0  0
 16 30  1  0  0  0  0
M  END
>  <Mol_ID>
2240

>  <Formula>
C11H14N4S

>  <MolWeight>
234.32066

>  <Cat>
S7149

>  <Name>
NSC 319726

>  <Synonyms>
N/A

>  <Target>
p53

>  <Form>
free base

>  <CAS>
71555-25-4

>  <URL>
http://selleckchem.com/products/nsc319726.html

$$$$
