NSC622608
 OpenBabel08302521313D

 28 28  0  0  0  0  0  0  0  0999 V2000
   -3.2944   -3.3984   -0.8298 O   0  0  0  0  0  0  0  0  0  0  0  0
   -4.1675   -3.0881   -1.7636 C   0  0  0  0  0  0  0  0  0  0  0  0
   -3.8452   -1.8647   -2.3148 C   0  0  0  0  0  0  0  0  0  0  0  0
   -2.7127   -1.4384   -1.6603 C   0  0  0  0  0  0  0  0  0  0  0  0
   -2.4108   -2.4288   -0.7470 C   0  0  0  0  0  0  0  0  0  0  0  0
   -1.2346   -2.4366    0.1759 C   0  0  0  0  0  0  0  0  0  0  0  0
   -1.6554   -2.4748    1.5637 N   0  0  0  0  0  0  0  0  0  0  0  0
   -0.8169   -2.5130    2.5456 C   0  0  0  0  0  0  0  0  0  0  0  0
    0.8762   -2.5507    2.3308 S   0  0  0  0  0  0  0  0  0  0  0  0
    1.3248   -2.5582    4.2564 S   0  0  0  0  0  0  0  0  0  0  0  0
   -0.2798   -2.5290    4.8308 C   0  0  0  0  0  0  0  0  0  0  0  0
   -1.2382   -2.5118    3.8477 N   0  0  0  0  0  0  0  0  0  0  0  0
   -0.6204   -2.5110    6.2218 N   0  0  0  0  0  0  0  0  0  0  0  0
    0.3937   -2.4645    7.2669 C   0  0  0  0  0  0  0  0  0  0  0  0
   -2.0147   -2.5291    6.6229 C   0  0  0  0  0  0  0  0  0  0  0  0
    2.3386    0.7859    2.3784 Br  0  0  0  0  0  0  0  0  0  0  0  0
   -5.0041   -3.7110   -2.0507 H   0  0  0  0  0  0  0  0  0  0  0  0
   -4.3715   -1.3480   -3.1064 H   0  0  0  0  0  0  0  0  0  0  0  0
   -2.1683   -0.5190   -1.8363 H   0  0  0  0  0  0  0  0  0  0  0  0
   -0.6171   -3.3304   -0.0580 H   0  0  0  0  0  0  0  0  0  0  0  0
   -0.6256   -1.5214    0.0038 H   0  0  0  0  0  0  0  0  0  0  0  0
    0.2536   -1.5480    7.8799 H   0  0  0  0  0  0  0  0  0  0  0  0
    0.2969   -3.3563    7.9216 H   0  0  0  0  0  0  0  0  0  0  0  0
    1.4251   -2.4454    6.8703 H   0  0  0  0  0  0  0  0  0  0  0  0
   -2.5410   -1.6421    6.2106 H   0  0  0  0  0  0  0  0  0  0  0  0
   -2.5019   -3.4553    6.2511 H   0  0  0  0  0  0  0  0  0  0  0  0
   -2.1172   -2.5072    7.7310 H   0  0  0  0  0  0  0  0  0  0  0  0
    2.8199   -0.1182    1.2418 H   0  0  0  0  0  0  0  0  0  0  0  0
  1  2  1  0  0  0  0
  2  3  2  0  0  0  0
  2 17  1  0  0  0  0
  3  4  1  0  0  0  0
  3 18  1  0  0  0  0
  4  5  2  0  0  0  0
  4 19  1  0  0  0  0
  5  1  1  0  0  0  0
  5  6  1  0  0  0  0
  6  7  1  0  0  0  0
  6 20  1  0  0  0  0
  6 21  1  0  0  0  0
  7  8  2  0  0  0  0
  8  9  1  0  0  0  0
  9 10  1  0  0  0  0
 10 11  1  0  0  0  0
 11 12  2  0  0  0  0
 11 13  1  0  0  0  0
 12  8  1  0  0  0  0
 13 14  1  0  0  0  0
 13 15  1  0  0  0  0
 14 22  1  0  0  0  0
 14 23  1  0  0  0  0
 14 24  1  0  0  0  0
 15 25  1  0  0  0  0
 15 26  1  0  0  0  0
 15 27  1  0  0  0  0
 16 28  1  0  0  0  0
M  END
>  <Mol_ID>
5933

>  <Formula>
C9H12BrN3OS2

>  <MolWeight>
322.24508

>  <Cat>
S9869

>  <Name>
NSC622608

>  <Synonyms>
N/A

>  <Target>
Others

>  <Form>
Free Base

>  <CAS>
2593254-90-9

>  <URL>
http://www.selleckchem.com/products/nsc622608.html

$$$$
