NSC 405020.cdx
 OpenBabel08302520413D

 31 31  0  0  0  0  0  0  0  0999 V2000
    1.2371   -0.1267   -0.6950 C   0  0  0  0  0  0  0  0  0  0  0  0
    1.0880   -1.1574    0.2361 C   0  0  0  0  0  0  0  0  0  0  0  0
    0.2836   -0.9693    1.3584 C   0  0  0  0  0  0  0  0  0  0  0  0
   -0.3571    0.2534    1.5614 C   0  0  0  0  0  0  0  0  0  0  0  0
   -0.1893    1.3041    0.6494 C   0  0  0  0  0  0  0  0  0  0  0  0
    0.5954    1.0996   -0.4953 C   0  0  0  0  0  0  0  0  0  0  0  0
   -0.8676    2.6010    0.9416 C   0  0  0  0  0  0  0  0  0  0  0  0
   -0.3054    3.7331    0.3841 N   0  0  0  0  0  0  0  0  0  0  0  0
   -1.8500    2.6298    1.6777 O   0  0  0  0  0  0  0  0  0  0  0  0
   -0.7633    5.0770    0.7410 C   0  0  3  0  0  0  0  0  0  0  0  0
   -0.0210    5.5607    2.0017 C   0  0  0  0  0  0  0  0  0  0  0  0
   -0.5644    5.9997   -0.4586 C   0  0  0  0  0  0  0  0  0  0  0  0
   -0.3962    6.9550    2.5165 C   0  0  0  0  0  0  0  0  0  0  0  0
   -1.8739    7.1192    2.8361 C   0  0  0  0  0  0  0  0  0  0  0  0
    1.8491   -0.2849   -1.5793 H   0  0  0  0  0  0  0  0  0  0  0  0
    1.5917   -2.1081    0.0812 H   0  0  0  0  0  0  0  0  0  0  0  0
    0.1551   -1.7749    2.0779 H   0  0  0  0  0  0  0  0  0  0  0  0
   -0.9853    0.3909    2.4405 H   0  0  0  0  0  0  0  0  0  0  0  0
    0.7015    1.8712   -1.2510 H   0  0  0  0  0  0  0  0  0  0  0  0
    0.6157    3.6560   -0.0240 H   0  0  0  0  0  0  0  0  0  0  0  0
   -1.8357    5.0175    0.9603 H   0  0  0  0  0  0  0  0  0  0  0  0
   -0.1883    4.8387    2.8122 H   0  0  0  0  0  0  0  0  0  0  0  0
    1.0606    5.5468    1.8118 H   0  0  0  0  0  0  0  0  0  0  0  0
   -1.1726    5.6565   -1.3031 H   0  0  0  0  0  0  0  0  0  0  0  0
   -0.8616    7.0285   -0.2391 H   0  0  0  0  0  0  0  0  0  0  0  0
    0.4801    6.0042   -0.7893 H   0  0  0  0  0  0  0  0  0  0  0  0
    0.1786    7.1460    3.4313 H   0  0  0  0  0  0  0  0  0  0  0  0
   -0.0898    7.7243    1.7993 H   0  0  0  0  0  0  0  0  0  0  0  0
   -2.2310    6.3141    3.4857 H   0  0  0  0  0  0  0  0  0  0  0  0
   -2.0427    8.0702    3.3522 H   0  0  0  0  0  0  0  0  0  0  0  0
   -2.4801    7.1265    1.9252 H   0  0  0  0  0  0  0  0  0  0  0  0
  1  2  2  0  0  0  0
  1 15  1  0  0  0  0
  2  3  1  0  0  0  0
  2 16  1  0  0  0  0
  3  4  2  0  0  0  0
  3 17  1  0  0  0  0
  4  5  1  0  0  0  0
  4 18  1  0  0  0  0
  5  6  2  0  0  0  0
  5  7  1  0  0  0  0
  6  1  1  0  0  0  0
  6 19  1  0  0  0  0
  7  8  1  0  0  0  0
  7  9  2  0  0  0  0
  8 10  1  0  0  0  0
  8 20  1  0  0  0  0
 10 11  1  0  0  0  0
 10 12  1  0  0  0  0
 10 21  1  0  0  0  0
 11 13  1  0  0  0  0
 11 22  1  0  0  0  0
 11 23  1  0  0  0  0
 12 24  1  0  0  0  0
 12 25  1  0  0  0  0
 12 26  1  0  0  0  0
 13 14  1  0  0  0  0
 13 27  1  0  0  0  0
 13 28  1  0  0  0  0
 14 29  1  0  0  0  0
 14 30  1  0  0  0  0
 14 31  1  0  0  0  0
M  END
>  <Mol_ID>
3887

>  <Formula>
C12H15Cl2NO

>  <MolWeight>
260.1596

>  <Cat>
S8072

>  <Name>
NSC 405020

>  <Synonyms>
N/A

>  <Target>
MMP

>  <Form>
free base

>  <CAS>
7497-07-6

>  <URL>
http://selleckchem.com/products/nsc-405020.html

$$$$
