NSC 185058
 OpenBabel08302521233D

 24 25  0  0  0  0  0  0  0  0999 V2000
   -0.6131    1.2604    0.0201 C   0  0  0  0  0  0  0  0  0  0  0  0
    0.6744    1.1216   -0.4985 C   0  0  0  0  0  0  0  0  0  0  0  0
    1.2714   -0.1330   -0.4854 C   0  0  0  0  0  0  0  0  0  0  0  0
    0.5678   -1.2080    0.0390 C   0  0  0  0  0  0  0  0  0  0  0  0
   -0.7166   -0.9860    0.5184 C   0  0  0  0  0  0  0  0  0  0  0  0
   -1.3352    0.2187    0.5105 N   0  0  0  0  0  0  0  0  0  0  0  0
   -1.3055    2.5965    0.0002 C   0  0  0  0  0  0  0  0  0  0  0  0
   -2.6892    2.5181   -0.0884 N   0  0  0  0  0  0  0  0  0  0  0  0
   -0.4374    4.0438    0.1738 S   0  0  0  0  0  0  0  0  0  0  0  0
   -3.5673    3.4892   -0.6017 C   0  0  0  0  0  0  0  0  0  0  0  0
   -3.1773    4.3175   -1.6513 C   0  0  0  0  0  0  0  0  0  0  0  0
   -4.0540    5.2924   -2.1152 C   0  0  0  0  0  0  0  0  0  0  0  0
   -5.2985    5.4094   -1.5173 C   0  0  0  0  0  0  0  0  0  0  0  0
   -5.6271    4.5064   -0.5176 C   0  0  0  0  0  0  0  0  0  0  0  0
   -4.8041    3.5256   -0.0731 N   0  0  0  0  0  0  0  0  0  0  0  0
    1.2114    1.9617   -0.9234 H   0  0  0  0  0  0  0  0  0  0  0  0
    2.2742   -0.2641   -0.8831 H   0  0  0  0  0  0  0  0  0  0  0  0
    1.0109   -2.1967    0.0713 H   0  0  0  0  0  0  0  0  0  0  0  0
   -1.2976   -1.8049    0.9342 H   0  0  0  0  0  0  0  0  0  0  0  0
   -3.1390    1.7059    0.3313 H   0  0  0  0  0  0  0  0  0  0  0  0
   -2.2167    4.1986   -2.1399 H   0  0  0  0  0  0  0  0  0  0  0  0
   -3.7581    5.9511   -2.9260 H   0  0  0  0  0  0  0  0  0  0  0  0
   -5.9957    6.1793   -1.8278 H   0  0  0  0  0  0  0  0  0  0  0  0
   -6.5944    4.5540   -0.0269 H   0  0  0  0  0  0  0  0  0  0  0  0
  1  2  2  0  0  0  0
  1  6  1  0  0  0  0
  1  7  1  0  0  0  0
  2  3  1  0  0  0  0
  2 16  1  0  0  0  0
  3  4  2  0  0  0  0
  3 17  1  0  0  0  0
  4  5  1  0  0  0  0
  4 18  1  0  0  0  0
  5  6  2  0  0  0  0
  5 19  1  0  0  0  0
  7  8  1  0  0  0  0
  7  9  2  0  0  0  0
  8 10  1  0  0  0  0
  8 20  1  0  0  0  0
 10 11  2  0  0  0  0
 10 15  1  0  0  0  0
 11 12  1  0  0  0  0
 11 21  1  0  0  0  0
 12 13  2  0  0  0  0
 12 22  1  0  0  0  0
 13 14  1  0  0  0  0
 13 23  1  0  0  0  0
 14 15  2  0  0  0  0
 14 24  1  0  0  0  0
M  END
>  <Mol_ID>
4767

>  <Formula>
C11H9N3S

>  <MolWeight>
215.27426

>  <Cat>
S6716

>  <Name>
NSC 185058

>  <Synonyms>
N/A

>  <Target>
Autophagy

>  <Form>
Free Base

>  <CAS>
39122-38-8

>  <URL>
http://www.selleck.cn/products/nsc-185058.html

$$$$
