NVP-LCQ195
 OpenBabel08302521353D

 48 50  0  0  0  0  0  0  0  0999 V2000
    0.2556   -0.2352    0.4573 N   0  0  0  0  0  0  0  0  0  0  0  0
   -0.8167    0.3367    1.1254 C   0  0  0  0  0  0  0  0  0  0  0  0
   -1.9751    0.3510    0.7197 O   0  0  0  0  0  0  0  0  0  0  0  0
   -1.1287    1.1489   -2.1497 C   0  0  0  0  0  0  0  0  0  0  0  0
   -2.1489    1.2216   -3.0722 N   0  0  0  0  0  0  0  0  0  0  0  0
   -0.6420    2.1283   -1.5933 O   0  0  0  0  0  0  0  0  0  0  0  0
   -2.2416    6.6351   -1.7968 S   0  0  0  0  0  0  0  0  0  0  0  0
   -0.7188    6.3505   -0.9149 C   0  0  0  0  0  0  0  0  0  0  0  0
   -1.9554    7.5630   -2.8742 O   0  0  0  0  0  0  0  0  0  0  0  0
   -3.2785    6.9346   -0.8244 O   0  0  0  0  0  0  0  0  0  0  0  0
    0.0738   -0.7517   -0.8130 C   0  0  0  0  0  0  0  0  0  0  0  0
   -0.6203   -0.2253   -1.9450 C   0  0  0  0  0  0  0  0  0  0  0  0
    0.5572   -1.9714   -1.2153 C   0  0  0  0  0  0  0  0  0  0  0  0
   -0.7018   -1.1583   -2.9224 N   0  0  0  0  0  0  0  0  0  0  0  0
    0.0198   -2.1896   -2.4491 N   0  0  0  0  0  0  0  0  0  0  0  0
   -0.5139    0.8758    2.4749 C   0  0  0  0  0  0  0  0  0  0  0  0
    0.6967    1.5302    2.7311 C   0  0  0  0  0  0  0  0  0  0  0  0
   -1.4929    0.7967    3.4732 C   0  0  0  0  0  0  0  0  0  0  0  0
    0.9154    2.1177    3.9780 C   0  0  0  0  0  0  0  0  0  0  0  0
   -1.2664    1.3812    4.7197 C   0  0  0  0  0  0  0  0  0  0  0  0
   -0.0666    2.0485    4.9673 C   0  0  0  0  0  0  0  0  0  0  0  0
   -2.8987    2.4005   -3.4984 C   0  0  0  0  0  0  0  0  0  0  0  0
   -2.0802    3.4538   -4.2550 C   0  0  0  0  0  0  0  0  0  0  0  0
   -3.7902    2.9973   -2.4079 C   0  0  0  0  0  0  0  0  0  0  0  0
   -1.5334    4.5900   -3.4008 C   0  0  0  0  0  0  0  0  0  0  0  0
   -3.1180    4.0869   -1.5828 C   0  0  0  0  0  0  0  0  0  0  0  0
   -2.5778    5.1238   -2.4950 N   0  0  0  0  0  0  0  0  0  0  0  0
    0.9966   -0.6263    1.0242 H   0  0  0  0  0  0  0  0  0  0  0  0
   -2.4412    0.3138   -3.4249 H   0  0  0  0  0  0  0  0  0  0  0  0
    0.0705    6.1462   -1.6408 H   0  0  0  0  0  0  0  0  0  0  0  0
   -0.4722    7.2650   -0.3698 H   0  0  0  0  0  0  0  0  0  0  0  0
   -0.8480    5.5255   -0.2200 H   0  0  0  0  0  0  0  0  0  0  0  0
    1.1398   -2.7299   -0.7133 H   0  0  0  0  0  0  0  0  0  0  0  0
    0.1002   -3.0235   -3.0226 H   0  0  0  0  0  0  0  0  0  0  0  0
    1.4516    1.6317    1.9561 H   0  0  0  0  0  0  0  0  0  0  0  0
   -2.4384    0.2946    3.2762 H   0  0  0  0  0  0  0  0  0  0  0  0
    1.8418    2.6535    4.1710 H   0  0  0  0  0  0  0  0  0  0  0  0
   -2.0332    1.3350    5.4894 H   0  0  0  0  0  0  0  0  0  0  0  0
    0.0965    2.5302    5.9286 H   0  0  0  0  0  0  0  0  0  0  0  0
   -3.5809    1.9686   -4.2442 H   0  0  0  0  0  0  0  0  0  0  0  0
   -1.2600    2.9859   -4.8123 H   0  0  0  0  0  0  0  0  0  0  0  0
   -2.7425    3.9065   -5.0062 H   0  0  0  0  0  0  0  0  0  0  0  0
   -4.6623    3.4478   -2.9032 H   0  0  0  0  0  0  0  0  0  0  0  0
   -4.1779    2.2128   -1.7482 H   0  0  0  0  0  0  0  0  0  0  0  0
   -0.6674    4.2565   -2.8247 H   0  0  0  0  0  0  0  0  0  0  0  0
   -1.1910    5.3838   -4.0754 H   0  0  0  0  0  0  0  0  0  0  0  0
   -3.8835    4.5198   -0.9295 H   0  0  0  0  0  0  0  0  0  0  0  0
   -2.3307    3.6874   -0.9420 H   0  0  0  0  0  0  0  0  0  0  0  0
  1  2  1  0  0  0  0
  1 11  1  0  0  0  0
  1 28  1  0  0  0  0
  2  3  2  0  0  0  0
  2 16  1  0  0  0  0
  4  5  1  0  0  0  0
  4  6  2  0  0  0  0
  4 12  1  0  0  0  0
  5 22  1  0  0  0  0
  5 29  1  0  0  0  0
  7  8  1  0  0  0  0
  7  9  2  0  0  0  0
  7 10  2  0  0  0  0
  7 27  1  0  0  0  0
  8 30  1  0  0  0  0
  8 31  1  0  0  0  0
  8 32  1  0  0  0  0
 11 12  1  0  0  0  0
 11 13  2  0  0  0  0
 12 14  2  0  0  0  0
 13 15  1  0  0  0  0
 13 33  1  0  0  0  0
 14 15  1  0  0  0  0
 15 34  1  0  0  0  0
 16 17  2  0  0  0  0
 16 18  1  0  0  0  0
 17 19  1  0  0  0  0
 17 35  1  0  0  0  0
 18 20  2  0  0  0  0
 18 36  1  0  0  0  0
 19 21  2  0  0  0  0
 19 37  1  0  0  0  0
 20 21  1  0  0  0  0
 20 38  1  0  0  0  0
 21 39  1  0  0  0  0
 22 23  1  0  0  0  0
 22 24  1  0  0  0  0
 22 40  1  0  0  0  0
 23 25  1  0  0  0  0
 23 41  1  0  0  0  0
 23 42  1  0  0  0  0
 24 26  1  0  0  0  0
 24 43  1  0  0  0  0
 24 44  1  0  0  0  0
 25 27  1  0  0  0  0
 25 45  1  0  0  0  0
 25 46  1  0  0  0  0
 26 27  1  0  0  0  0
 26 47  1  0  0  0  0
 26 48  1  0  0  0  0
M  END
>  <Mol_ID>
6919

>  <Formula>
C17H19Cl2N5O4S

>  <MolWeight>
460.33486

>  <Cat>
E2404

>  <Name>
NVP-LCQ195

>  <Synonyms>
LCQ-195, AT9311

>  <Target>
CDK

>  <Form>
Free base

>  <CAS>
902156-99-4

>  <URL>
https://www.selleckchem.com/products/nvp-lcq195.html

$$$$
