NVR 3-778
 OpenBabel08302521353D

 45 47  0  0  0  0  0  0  0  0999 V2000
    1.0016   -0.1076   -0.0133 S   0  0  0  0  0  0  0  0  0  0  0  0
    0.5456    0.9962   -0.8344 O   0  0  0  0  0  0  0  0  0  0  0  0
    2.4087   -0.2722    0.2797 O   0  0  0  0  0  0  0  0  0  0  0  0
    1.2637   -2.8561    1.0912 F   0  0  0  0  0  0  0  0  0  0  0  0
   -1.0853   -2.7298   -4.0205 C   0  0  0  0  0  0  0  0  0  0  0  0
   -2.0019   -3.7212   -4.3420 N   0  0  0  0  0  0  0  0  0  0  0  0
   -0.7862   -1.7715   -4.7222 O   0  0  0  0  0  0  0  0  0  0  0  0
   -1.7451    2.5838    3.2230 O   0  0  0  0  0  0  0  0  0  0  0  0
   -2.8870   -2.3954   -8.9085 F   0  0  0  0  0  0  0  0  0  0  0  0
   -5.7654   -5.4361   -6.7252 F   0  0  0  0  0  0  0  0  0  0  0  0
   -5.1421   -3.9421   -8.9324 F   0  0  0  0  0  0  0  0  0  0  0  0
    0.4478   -1.6038   -0.7588 C   0  0  0  0  0  0  0  0  0  0  0  0
   -0.1439   -1.5903   -2.0272 C   0  0  0  0  0  0  0  0  0  0  0  0
    0.7067   -2.8110   -0.1260 C   0  0  0  0  0  0  0  0  0  0  0  0
   -0.4797   -2.7989   -2.6600 C   0  0  0  0  0  0  0  0  0  0  0  0
    0.3993   -4.0166   -0.7595 C   0  0  0  0  0  0  0  0  0  0  0  0
   -0.1867   -4.0157   -2.0311 C   0  0  0  0  0  0  0  0  0  0  0  0
    0.1357    0.0113    1.4763 N   0  0  0  0  0  0  0  0  0  0  0  0
   -1.3298    0.2318    1.3065 C   0  0  0  0  0  0  0  0  0  0  0  0
    0.7606    1.0338    2.3741 C   0  0  0  0  0  0  0  0  0  0  0  0
   -2.0360    0.2382    2.6587 C   0  0  0  0  0  0  0  0  0  0  0  0
    0.0790    1.0560    3.7362 C   0  0  0  0  0  0  0  0  0  0  0  0
   -1.4276    1.2521    3.6201 C   0  0  0  0  0  0  0  0  0  0  0  0
   -2.7400   -3.7888   -5.5495 C   0  0  0  0  0  0  0  0  0  0  0  0
   -2.4115   -3.0561   -6.6945 C   0  0  0  0  0  0  0  0  0  0  0  0
   -3.8657   -4.6235   -5.5856 C   0  0  0  0  0  0  0  0  0  0  0  0
   -3.2191   -3.1175   -7.8296 C   0  0  0  0  0  0  0  0  0  0  0  0
   -4.6689   -4.6646   -6.7283 C   0  0  0  0  0  0  0  0  0  0  0  0
   -4.3555   -3.9106   -7.8475 C   0  0  0  0  0  0  0  0  0  0  0  0
   -2.2902   -4.3500   -3.6020 H   0  0  0  0  0  0  0  0  0  0  0  0
   -1.3330    2.7838    2.3661 H   0  0  0  0  0  0  0  0  0  0  0  0
   -0.3191   -0.6449   -2.5400 H   0  0  0  0  0  0  0  0  0  0  0  0
    0.6453   -4.9524   -0.2641 H   0  0  0  0  0  0  0  0  0  0  0  0
   -0.3640   -4.9660   -2.5288 H   0  0  0  0  0  0  0  0  0  0  0  0
   -1.7545   -0.5789    0.7053 H   0  0  0  0  0  0  0  0  0  0  0  0
   -1.5138    1.1767    0.7836 H   0  0  0  0  0  0  0  0  0  0  0  0
    1.8155    0.7847    2.5342 H   0  0  0  0  0  0  0  0  0  0  0  0
    0.7118    2.0226    1.9040 H   0  0  0  0  0  0  0  0  0  0  0  0
   -1.9701   -0.7617    3.1051 H   0  0  0  0  0  0  0  0  0  0  0  0
   -3.0976    0.4632    2.5028 H   0  0  0  0  0  0  0  0  0  0  0  0
    0.5179    1.8597    4.3388 H   0  0  0  0  0  0  0  0  0  0  0  0
    0.2774    0.1086    4.2528 H   0  0  0  0  0  0  0  0  0  0  0  0
   -1.8784    1.1197    4.6097 H   0  0  0  0  0  0  0  0  0  0  0  0
   -1.5288   -2.4257   -6.7468 H   0  0  0  0  0  0  0  0  0  0  0  0
   -4.1621   -5.2227   -4.7302 H   0  0  0  0  0  0  0  0  0  0  0  0
  1  2  2  0  0  0  0
  1  3  2  0  0  0  0
  1 12  1  0  0  0  0
  1 18  1  0  0  0  0
  4 14  1  0  0  0  0
  5  6  1  0  0  0  0
  5  7  2  0  0  0  0
  5 15  1  0  0  0  0
  6 24  1  0  0  0  0
  6 30  1  0  0  0  0
  8 23  1  0  0  0  0
  8 31  1  0  0  0  0
  9 27  1  0  0  0  0
 10 28  1  0  0  0  0
 11 29  1  0  0  0  0
 12 13  2  0  0  0  0
 12 14  1  0  0  0  0
 13 15  1  0  0  0  0
 13 32  1  0  0  0  0
 14 16  2  0  0  0  0
 15 17  2  0  0  0  0
 16 17  1  0  0  0  0
 16 33  1  0  0  0  0
 17 34  1  0  0  0  0
 18 19  1  0  0  0  0
 18 20  1  0  0  0  0
 19 21  1  0  0  0  0
 19 35  1  0  0  0  0
 19 36  1  0  0  0  0
 20 22  1  0  0  0  0
 20 37  1  0  0  0  0
 20 38  1  0  0  0  0
 21 23  1  0  0  0  0
 21 39  1  0  0  0  0
 21 40  1  0  0  0  0
 22 23  1  0  0  0  0
 22 41  1  0  0  0  0
 22 42  1  0  0  0  0
 23 43  1  0  0  0  0
 24 25  2  0  0  0  0
 24 26  1  0  0  0  0
 25 27  1  0  0  0  0
 25 44  1  0  0  0  0
 26 28  2  0  0  0  0
 26 45  1  0  0  0  0
 27 29  2  0  0  0  0
 28 29  1  0  0  0  0
M  END
>  <Mol_ID>
6702

>  <Formula>
C18H16F4N2O4S

>  <MolWeight>
432.3892528

>  <Cat>
S6757

>  <Name>
NVR 3-778

>  <Synonyms>
N/A

>  <Target>
Others

>  <Form>
Free base

>  <CAS>
1445790-55-5

>  <URL>
http://www.selleckchem.com/products/nvr-3-778.html

$$$$
