o-3M3FBS
 OpenBabel08302521323D

 39 40  0  0  0  0  0  0  0  0999 V2000
    1.2072   -0.5231   -0.4810 C   0  0  0  0  0  0  0  0  0  0  0  0
    0.2370   -1.5065   -0.1643 C   0  0  0  0  0  0  0  0  0  0  0  0
   -1.1174   -1.1219   -0.0235 C   0  0  0  0  0  0  0  0  0  0  0  0
   -1.5346    0.1919   -0.2210 C   0  0  0  0  0  0  0  0  0  0  0  0
   -0.5867    1.1339   -0.6111 C   0  0  0  0  0  0  0  0  0  0  0  0
    0.7743    0.7961   -0.7794 C   0  0  0  0  0  0  0  0  0  0  0  0
    2.9721   -0.8759   -0.2875 S   0  0  0  0  0  0  0  0  0  0  0  0
    3.6427    0.3698    0.0308 O   0  0  0  0  0  0  0  0  0  0  0  0
    3.1526   -2.0041    0.6009 O   0  0  0  0  0  0  0  0  0  0  0  0
    3.5221   -1.2818   -1.8468 N   0  0  0  0  0  0  0  0  0  0  0  0
    3.6111   -2.6608   -2.2300 C   0  0  0  0  0  0  0  0  0  0  0  0
    2.6509   -3.2649   -3.0474 C   0  0  0  0  0  0  0  0  0  0  0  0
    2.8166   -4.6262   -3.3851 C   0  0  0  0  0  0  0  0  0  0  0  0
    3.9182   -5.3598   -2.9512 C   0  0  0  0  0  0  0  0  0  0  0  0
    4.8819   -4.7394   -2.1654 C   0  0  0  0  0  0  0  0  0  0  0  0
    4.7275   -3.3979   -1.8016 C   0  0  0  0  0  0  0  0  0  0  0  0
    1.4681   -2.5482   -3.6336 C   0  0  0  0  0  0  0  0  0  0  0  0
    1.3391   -1.2378   -3.3031 F   0  0  0  0  0  0  0  0  0  0  0  0
    1.4912   -2.5742   -4.9982 F   0  0  0  0  0  0  0  0  0  0  0  0
    0.2902   -3.1390   -3.2807 F   0  0  0  0  0  0  0  0  0  0  0  0
    1.6481    1.9171   -1.2795 C   0  0  0  0  0  0  0  0  0  0  0  0
   -2.9602    0.6026    0.0037 C   0  0  0  0  0  0  0  0  0  0  0  0
    0.4933   -2.9781    0.0214 C   0  0  0  0  0  0  0  0  0  0  0  0
   -1.8560   -1.8725    0.2581 H   0  0  0  0  0  0  0  0  0  0  0  0
   -0.9075    2.1622   -0.7840 H   0  0  0  0  0  0  0  0  0  0  0  0
    4.3538   -0.7190   -2.0412 H   0  0  0  0  0  0  0  0  0  0  0  0
    2.0748   -5.1200   -4.0160 H   0  0  0  0  0  0  0  0  0  0  0  0
    4.0319   -6.4036   -3.2331 H   0  0  0  0  0  0  0  0  0  0  0  0
    5.7557   -5.2982   -1.8350 H   0  0  0  0  0  0  0  0  0  0  0  0
    5.4952   -2.9358   -1.1832 H   0  0  0  0  0  0  0  0  0  0  0  0
    1.1284    2.4473   -2.0884 H   0  0  0  0  0  0  0  0  0  0  0  0
    1.8498    2.6320   -0.4762 H   0  0  0  0  0  0  0  0  0  0  0  0
    2.5838    1.5748   -1.7221 H   0  0  0  0  0  0  0  0  0  0  0  0
   -3.0467    1.1596    0.9424 H   0  0  0  0  0  0  0  0  0  0  0  0
   -3.3125    1.2348   -0.8181 H   0  0  0  0  0  0  0  0  0  0  0  0
   -3.6240   -0.2657    0.0584 H   0  0  0  0  0  0  0  0  0  0  0  0
    0.2890   -3.2710    1.0555 H   0  0  0  0  0  0  0  0  0  0  0  0
   -0.1760   -3.5412   -0.6405 H   0  0  0  0  0  0  0  0  0  0  0  0
    1.4949   -3.3023   -0.2475 H   0  0  0  0  0  0  0  0  0  0  0  0
  1  2  2  0  0  0  0
  1  6  1  0  0  0  0
  1  7  1  0  0  0  0
  2  3  1  0  0  0  0
  2 23  1  0  0  0  0
  3  4  2  0  0  0  0
  3 24  1  0  0  0  0
  4  5  1  0  0  0  0
  4 22  1  0  0  0  0
  5  6  2  0  0  0  0
  5 25  1  0  0  0  0
  6 21  1  0  0  0  0
  7  8  2  0  0  0  0
  7  9  2  0  0  0  0
  7 10  1  0  0  0  0
 10 11  1  0  0  0  0
 10 26  1  0  0  0  0
 11 12  2  0  0  0  0
 11 16  1  0  0  0  0
 12 13  1  0  0  0  0
 12 17  1  0  0  0  0
 13 14  2  0  0  0  0
 13 27  1  0  0  0  0
 14 15  1  0  0  0  0
 14 28  1  0  0  0  0
 15 16  2  0  0  0  0
 15 29  1  0  0  0  0
 16 30  1  0  0  0  0
 17 18  1  0  0  0  0
 17 19  1  0  0  0  0
 17 20  1  0  0  0  0
 21 31  1  0  0  0  0
 21 32  1  0  0  0  0
 21 33  1  0  0  0  0
 22 34  1  0  0  0  0
 22 35  1  0  0  0  0
 22 36  1  0  0  0  0
 23 37  1  0  0  0  0
 23 38  1  0  0  0  0
 23 39  1  0  0  0  0
M  END
>  <Mol_ID>
6335

>  <Formula>
C16H16F3NO2S

>  <MolWeight>
343.3639496

>  <Cat>
E0778

>  <Name>
o-3M3FBS

>  <Target>
Calcium Channel

>  <Form>
free base

>  <CAS>
313981-55-4

>  <URL>
http://www.selleckchem.com/products/o-3m3fbs.html

$$$$
