O-Acetylserine
 OpenBabel08302520393D

 19 18  0  0  0  0  0  0  0  0999 V2000
    1.1601   -0.0224   -0.1412 C   0  0  1  0  0  0  0  0  0  0  0  0
    0.5463   -0.8195    1.0194 C   0  0  0  0  0  0  0  0  0  0  0  0
    2.5550   -0.5729   -0.4653 C   0  0  0  0  0  0  0  0  0  0  0  0
    0.2658    0.0163   -1.3206 N   0  0  0  0  0  0  0  0  0  0  0  0
    0.2115   -2.1600    0.6121 O   0  0  0  0  0  0  0  0  0  0  0  0
    2.7510   -0.8437   -1.7787 O   0  0  0  0  0  0  0  0  0  0  0  0
    3.4404   -0.7299    0.3631 O   0  0  0  0  0  0  0  0  0  0  0  0
   -0.4173   -2.8730    1.5917 C   0  0  0  0  0  0  0  0  0  0  0  0
   -0.6845   -4.2803    1.1512 C   0  0  0  0  0  0  0  0  0  0  0  0
   -0.7010   -2.4458    2.7042 O   0  0  0  0  0  0  0  0  0  0  0  0
    1.3105    1.0139    0.1829 H   0  0  0  0  0  0  0  0  0  0  0  0
    1.2504   -0.8716    1.8591 H   0  0  0  0  0  0  0  0  0  0  0  0
   -0.3668   -0.3107    1.3538 H   0  0  0  0  0  0  0  0  0  0  0  0
    0.5530    0.6780   -2.0355 H   0  0  0  0  0  0  0  0  0  0  0  0
    0.0279   -0.9102   -1.6670 H   0  0  0  0  0  0  0  0  0  0  0  0
    1.9385   -0.6698   -2.2875 H   0  0  0  0  0  0  0  0  0  0  0  0
    0.1080   -4.9344    1.5226 H   0  0  0  0  0  0  0  0  0  0  0  0
   -1.6512   -4.6019    1.5516 H   0  0  0  0  0  0  0  0  0  0  0  0
   -0.7375   -4.3437    0.0616 H   0  0  0  0  0  0  0  0  0  0  0  0
  1  4  1  0  0  0  0
  1 11  1  1  0  0  0
  1  3  1  0  0  0  0
  1  2  1  0  0  0  0
  2  5  1  0  0  0  0
  2 12  1  0  0  0  0
  2 13  1  0  0  0  0
  3  6  1  0  0  0  0
  3  7  2  0  0  0  0
  4 14  1  0  0  0  0
  4 15  1  0  0  0  0
  5  8  1  0  0  0  0
  6 16  1  0  0  0  0
  8  9  1  0  0  0  0
  8 10  2  0  0  0  0
  9 17  1  0  0  0  0
  9 18  1  0  0  0  0
  9 19  1  0  0  0  0
M  END
>  <Mol_ID>
3588

>  <Formula>
C5H9NO4

>  <MolWeight>
147.12926

>  <Cat>
S6144

>  <Name>
O-Acetylserine

>  <Synonyms>
N/A

>  <Target>
Others

>  <Form>
free base

>  <CAS>
5147-00-2

>  <URL>
http://www.selleck.cn/products/o-acetylserine.html

$$$$
