O-Demethyl-Gefitinib
 OpenBabel08302521333D

 52 55  0  0  0  0  0  0  0  0999 V2000
    1.2712   -0.5043   -0.2774 N   0  0  0  0  0  0  0  0  0  0  0  0
   -1.5546    0.7941    3.9385 O   0  0  0  0  0  0  0  0  0  0  0  0
   -2.2458    1.5144    4.9764 C   0  0  0  0  0  0  0  0  0  0  0  0
   -2.5347    0.7094    6.2799 C   0  0  0  0  0  0  0  0  0  0  0  0
   -1.3141    0.0757    6.9594 C   0  0  0  0  0  0  0  0  0  0  0  0
   -2.7931    3.3335    2.9662 O   0  0  0  0  0  0  0  0  0  0  0  0
    1.4693   -4.2127   -4.4095 F   0  0  0  0  0  0  0  0  0  0  0  0
    0.0734    1.4418    0.6574 C   0  0  0  0  0  0  0  0  0  0  0  0
    0.8119    0.8377   -0.3882 C   0  0  0  0  0  0  0  0  0  0  0  0
   -0.3621    2.7358    0.3494 C   0  0  0  0  0  0  0  0  0  0  0  0
   -0.3168    0.8640    1.9217 C   0  0  0  0  0  0  0  0  0  0  0  0
    1.1207    1.4940   -1.5345 N   0  0  0  0  0  0  0  0  0  0  0  0
   -1.2337    3.3621    1.2149 C   0  0  0  0  0  0  0  0  0  0  0  0
   -0.0637    3.3943   -0.7750 N   0  0  0  0  0  0  0  0  0  0  0  0
   -1.2208    1.5002    2.7922 C   0  0  0  0  0  0  0  0  0  0  0  0
    0.6729    2.7387   -1.6684 C   0  0  0  0  0  0  0  0  0  0  0  0
   -1.7257    2.7285    2.3640 C   0  0  0  0  0  0  0  0  0  0  0  0
    1.3709   -1.3693   -1.4066 C   0  0  0  0  0  0  0  0  0  0  0  0
    2.3876   -2.3304   -1.4420 C   0  0  0  0  0  0  0  0  0  0  0  0
    0.3662   -1.4063   -2.3899 C   0  0  0  0  0  0  0  0  0  0  0  0
    2.4328   -3.2785   -2.4679 C   0  0  0  0  0  0  0  0  0  0  0  0
    0.4033   -2.3627   -3.4083 C   0  0  0  0  0  0  0  0  0  0  0  0
    1.4423   -3.2851   -3.4403 C   0  0  0  0  0  0  0  0  0  0  0  0
   -1.4518   -0.4887    8.3072 N   0  0  0  0  0  0  0  0  0  0  0  0
   -2.2659   -1.6880    8.5183 C   0  0  0  0  0  0  0  0  0  0  0  0
   -1.5497    0.4306    9.4418 C   0  0  0  0  0  0  0  0  0  0  0  0
   -3.6451   -1.4703    9.1764 C   0  0  0  0  0  0  0  0  0  0  0  0
   -2.9849    0.6675    9.9277 C   0  0  0  0  0  0  0  0  0  0  0  0
   -3.6051   -0.5699   10.2912 O   0  0  0  0  0  0  0  0  0  0  0  0
    0.6981   -0.9977    0.3976 H   0  0  0  0  0  0  0  0  0  0  0  0
   -1.6713    2.4115    5.2373 H   0  0  0  0  0  0  0  0  0  0  0  0
   -3.2334    1.8049    4.6028 H   0  0  0  0  0  0  0  0  0  0  0  0
   -3.0159    1.4082    6.9746 H   0  0  0  0  0  0  0  0  0  0  0  0
   -3.2643   -0.0770    6.0567 H   0  0  0  0  0  0  0  0  0  0  0  0
   -0.9346   -0.7176    6.3040 H   0  0  0  0  0  0  0  0  0  0  0  0
   -0.5104    0.8226    6.9953 H   0  0  0  0  0  0  0  0  0  0  0  0
   -3.3432    3.7087    2.2518 H   0  0  0  0  0  0  0  0  0  0  0  0
    0.0643   -0.1114    2.2125 H   0  0  0  0  0  0  0  0  0  0  0  0
   -1.5785    4.3612    0.9560 H   0  0  0  0  0  0  0  0  0  0  0  0
    0.8993    3.2473   -2.5993 H   0  0  0  0  0  0  0  0  0  0  0  0
    3.1643   -2.3273   -0.6817 H   0  0  0  0  0  0  0  0  0  0  0  0
   -0.4584   -0.7001   -2.3663 H   0  0  0  0  0  0  0  0  0  0  0  0
    3.2254   -4.0178   -2.5048 H   0  0  0  0  0  0  0  0  0  0  0  0
   -0.3706   -2.3903   -4.1705 H   0  0  0  0  0  0  0  0  0  0  0  0
   -1.6919   -2.3192    9.2129 H   0  0  0  0  0  0  0  0  0  0  0  0
   -2.3732   -2.2804    7.6029 H   0  0  0  0  0  0  0  0  0  0  0  0
   -1.0024   -0.0399   10.2737 H   0  0  0  0  0  0  0  0  0  0  0  0
   -1.0408    1.3793    9.2473 H   0  0  0  0  0  0  0  0  0  0  0  0
   -4.3820   -1.1057    8.4522 H   0  0  0  0  0  0  0  0  0  0  0  0
   -4.0129   -2.4260    9.5675 H   0  0  0  0  0  0  0  0  0  0  0  0
   -2.9711    1.2987   10.8233 H   0  0  0  0  0  0  0  0  0  0  0  0
   -3.5951    1.1767    9.1758 H   0  0  0  0  0  0  0  0  0  0  0  0
  1  9  1  0  0  0  0
  1 18  1  0  0  0  0
  1 30  1  0  0  0  0
  2  3  1  0  0  0  0
  2 15  1  0  0  0  0
  3  4  1  0  0  0  0
  3 31  1  0  0  0  0
  3 32  1  0  0  0  0
  4  5  1  0  0  0  0
  4 33  1  0  0  0  0
  4 34  1  0  0  0  0
  5 24  1  0  0  0  0
  5 35  1  0  0  0  0
  5 36  1  0  0  0  0
  6 17  1  0  0  0  0
  6 37  1  0  0  0  0
  7 23  1  0  0  0  0
  8  9  1  0  0  0  0
  8 10  1  0  0  0  0
  8 11  2  0  0  0  0
  9 12  2  0  0  0  0
 10 13  2  0  0  0  0
 10 14  1  0  0  0  0
 11 15  1  0  0  0  0
 11 38  1  0  0  0  0
 12 16  1  0  0  0  0
 13 17  1  0  0  0  0
 13 39  1  0  0  0  0
 14 16  2  0  0  0  0
 15 17  2  0  0  0  0
 16 40  1  0  0  0  0
 18 19  2  0  0  0  0
 18 20  1  0  0  0  0
 19 21  1  0  0  0  0
 19 41  1  0  0  0  0
 20 22  2  0  0  0  0
 20 42  1  0  0  0  0
 21 23  2  0  0  0  0
 21 43  1  0  0  0  0
 22 23  1  0  0  0  0
 22 44  1  0  0  0  0
 24 25  1  0  0  0  0
 24 26  1  0  0  0  0
 25 27  1  0  0  0  0
 25 45  1  0  0  0  0
 25 46  1  0  0  0  0
 26 28  1  0  0  0  0
 26 47  1  0  0  0  0
 26 48  1  0  0  0  0
 27 29  1  0  0  0  0
 27 49  1  0  0  0  0
 27 50  1  0  0  0  0
 28 29  1  0  0  0  0
 28 51  1  0  0  0  0
 28 52  1  0  0  0  0
M  END
>  <Mol_ID>
6366

>  <Formula>
C21H22ClFN4O3

>  <MolWeight>
432.8757832

>  <Cat>
E0833

>  <Name>
O-Demethyl-Gefitinib

>  <Target>
EGFR

>  <Form>
free base

>  <CAS>
847949-49-9

>  <URL>
http://www.selleckchem.com/products/o-demethyl-gefitinib.html

$$$$
