o-Phenanthroline
 OpenBabel08302521243D

 22 24  0  0  0  0  0  0  0  0999 V2000
    0.7037    0.3467   -0.0039 C   0  0  0  0  0  0  0  0  0  0  0  0
    1.3934   -0.8907   -0.0011 C   0  0  0  0  0  0  0  0  0  0  0  0
    0.6950   -2.1018    0.0053 C   0  0  0  0  0  0  0  0  0  0  0  0
   -0.6923   -2.1026    0.0012 C   0  0  0  0  0  0  0  0  0  0  0  0
   -1.3922   -0.8929   -0.0036 C   0  0  0  0  0  0  0  0  0  0  0  0
   -2.7946   -0.8931   -0.0130 C   0  0  0  0  0  0  0  0  0  0  0  0
   -3.4911    0.3063   -0.0122 C   0  0  0  0  0  0  0  0  0  0  0  0
   -2.7577    1.4719   -0.0007 C   0  0  0  0  0  0  0  0  0  0  0  0
   -1.4091    1.5073    0.0036 N   0  0  0  0  0  0  0  0  0  0  0  0
   -0.7045    0.3459   -0.0002 C   0  0  0  0  0  0  0  0  0  0  0  0
    2.7957   -0.8891   -0.0082 C   0  0  0  0  0  0  0  0  0  0  0  0
    3.4904    0.3114   -0.0224 C   0  0  0  0  0  0  0  0  0  0  0  0
    2.7552    1.4761   -0.0250 C   0  0  0  0  0  0  0  0  0  0  0  0
    1.4066    1.5093   -0.0138 N   0  0  0  0  0  0  0  0  0  0  0  0
    1.2257   -3.0514    0.0100 H   0  0  0  0  0  0  0  0  0  0  0  0
   -1.2216   -3.0532    0.0015 H   0  0  0  0  0  0  0  0  0  0  0  0
   -3.3514   -1.8270   -0.0221 H   0  0  0  0  0  0  0  0  0  0  0  0
   -4.5744    0.3303   -0.0199 H   0  0  0  0  0  0  0  0  0  0  0  0
   -3.2426    2.4438    0.0045 H   0  0  0  0  0  0  0  0  0  0  0  0
    3.3540   -1.8220   -0.0059 H   0  0  0  0  0  0  0  0  0  0  0  0
    4.5734    0.3370   -0.0329 H   0  0  0  0  0  0  0  0  0  0  0  0
    3.2387    2.4486   -0.0380 H   0  0  0  0  0  0  0  0  0  0  0  0
  1  2  1  0  0  0  0
  1 10  2  0  0  0  0
  1 14  1  0  0  0  0
  2  3  2  0  0  0  0
  2 11  1  0  0  0  0
  3  4  1  0  0  0  0
  3 15  1  0  0  0  0
  4  5  2  0  0  0  0
  4 16  1  0  0  0  0
  5  6  1  0  0  0  0
  5 10  1  0  0  0  0
  6  7  2  0  0  0  0
  6 17  1  0  0  0  0
  7  8  1  0  0  0  0
  7 18  1  0  0  0  0
  8  9  2  0  0  0  0
  8 19  1  0  0  0  0
  9 10  1  0  0  0  0
 11 12  2  0  0  0  0
 11 20  1  0  0  0  0
 12 13  1  0  0  0  0
 12 21  1  0  0  0  0
 13 14  2  0  0  0  0
 13 22  1  0  0  0  0
M  END
>  <Mol_ID>
4954

>  <Formula>
C12H8N2

>  <MolWeight>
180.20532

>  <Cat>
S6830

>  <Name>
o-Phenanthroline

>  <Synonyms>
1,10-Phenanthroline, phen

>  <Target>
MMP

>  <Form>
Free Base

>  <CAS>
66-71-7

>  <URL>
http://www.selleckchem.com/products/o-phenanthroline.html

$$$$
