o-Toluic acid
 OpenBabel08302520383D

 18 18  0  0  0  0  0  0  0  0999 V2000
    1.0464   -0.0170    0.0337 C   0  0  0  0  0  0  0  0  0  0  0  0
    0.3497    1.2073   -0.0222 C   0  0  0  0  0  0  0  0  0  0  0  0
    0.3255   -1.2273    0.0651 C   0  0  0  0  0  0  0  0  0  0  0  0
    2.5303   -0.0818    0.1206 C   0  0  0  0  0  0  0  0  0  0  0  0
   -1.0569    1.1844   -0.0494 C   0  0  0  0  0  0  0  0  0  0  0  0
    1.0067    2.5618   -0.0362 C   0  0  0  0  0  0  0  0  0  0  0  0
   -1.0674   -1.2276    0.0199 C   0  0  0  0  0  0  0  0  0  0  0  0
    3.0678   -1.0572   -0.6490 O   0  0  0  0  0  0  0  0  0  0  0  0
    3.2072    0.6630    0.8070 O   0  0  0  0  0  0  0  0  0  0  0  0
   -1.7592   -0.0224   -0.0359 C   0  0  0  0  0  0  0  0  0  0  0  0
    0.8410   -2.1816    0.1585 H   0  0  0  0  0  0  0  0  0  0  0  0
   -1.6160    2.1167   -0.0774 H   0  0  0  0  0  0  0  0  0  0  0  0
    0.6290    3.1448   -0.8837 H   0  0  0  0  0  0  0  0  0  0  0  0
    0.7695    3.0975    0.8900 H   0  0  0  0  0  0  0  0  0  0  0  0
    2.0914    2.5289   -0.1434 H   0  0  0  0  0  0  0  0  0  0  0  0
   -1.6167   -2.1656    0.0477 H   0  0  0  0  0  0  0  0  0  0  0  0
    2.4363   -1.5095   -1.2397 H   0  0  0  0  0  0  0  0  0  0  0  0
   -2.8449   -0.0160   -0.0526 H   0  0  0  0  0  0  0  0  0  0  0  0
  1  2  2  0  0  0  0
  1  3  1  0  0  0  0
  1  4  1  0  0  0  0
  2  5  1  0  0  0  0
  2  6  1  0  0  0  0
  3  7  2  0  0  0  0
  3 11  1  0  0  0  0
  4  8  1  0  0  0  0
  4  9  2  0  0  0  0
  5 10  2  0  0  0  0
  5 12  1  0  0  0  0
  6 13  1  0  0  0  0
  6 14  1  0  0  0  0
  6 15  1  0  0  0  0
  7 10  1  0  0  0  0
  7 16  1  0  0  0  0
  8 17  1  0  0  0  0
 10 18  1  0  0  0  0
M  END
>  <Mol_ID>
3494

>  <Formula>
C8H8O2

>  <MolWeight>
136.14792

>  <Cat>
S6217

>  <Name>
o-Toluic acid

>  <Synonyms>
2-methylbenzoic acid, Orthotoluic acid

>  <Target>
Others

>  <Form>
free base

>  <CAS>
118-90-1

>  <URL>
http://www.selleck.cn/products/o-toluic-acid.html

$$$$
