Obatoclax (GX15-070)
 OpenBabel08302521313D

 43 46  0  0  0  0  0  0  0  0999 V2000
    0.8117   -0.0238    0.3769 O   0  0  0  0  0  0  0  0  0  0  0  0
   -0.3837   -3.2242    1.4169 N   0  0  0  0  0  0  0  0  0  0  0  0
    0.9627   -4.1291    3.5189 N   0  0  0  0  0  0  0  0  0  0  0  0
   -2.6591   -4.8570    0.8102 N   0  0  0  0  0  0  0  0  0  0  0  0
    0.5212   -2.1782    1.4868 C   0  0  0  0  0  0  0  0  0  0  0  0
   -1.1800   -2.9167    0.4351 C   0  0  0  0  0  0  0  0  0  0  0  0
    1.7408   -2.9952    3.4458 C   0  0  0  0  0  0  0  0  0  0  0  0
    2.6253   -3.0449    4.5147 C   0  0  0  0  0  0  0  0  0  0  0  0
    1.5033   -2.0570    2.3970 C   0  0  0  0  0  0  0  0  0  0  0  0
   -2.3201   -3.7190    0.1139 C   0  0  0  0  0  0  0  0  0  0  0  0
    0.1680   -1.2284    0.4493 C   0  0  0  0  0  0  0  0  0  0  0  0
   -0.8700   -1.6723   -0.2653 C   0  0  0  0  0  0  0  0  0  0  0  0
    1.2904   -4.8859    4.6091 C   0  0  0  0  0  0  0  0  0  0  0  0
    2.3319   -4.2407    5.2424 C   0  0  0  0  0  0  0  0  0  0  0  0
   -4.2478   -4.5806   -0.7197 C   0  0  0  0  0  0  0  0  0  0  0  0
   -3.2932   -3.5394   -0.8502 C   0  0  0  0  0  0  0  0  0  0  0  0
   -3.8315   -5.3923    0.3333 C   0  0  0  0  0  0  0  0  0  0  0  0
    3.6718   -2.0556    4.8837 C   0  0  0  0  0  0  0  0  0  0  0  0
    0.5699   -6.1389    4.9340 C   0  0  0  0  0  0  0  0  0  0  0  0
   -5.4374   -4.8987   -1.3979 C   0  0  0  0  0  0  0  0  0  0  0  0
   -4.5513   -6.5170    0.7494 C   0  0  0  0  0  0  0  0  0  0  0  0
   -6.1671   -6.0232   -1.0009 C   0  0  0  0  0  0  0  0  0  0  0  0
   -5.7289   -6.8176    0.0575 C   0  0  0  0  0  0  0  0  0  0  0  0
    0.1042    0.9767   -0.3547 C   0  0  0  0  0  0  0  0  0  0  0  0
    0.2273   -4.3309    2.8499 H   0  0  0  0  0  0  0  0  0  0  0  0
   -2.1240   -5.2213    1.5872 H   0  0  0  0  0  0  0  0  0  0  0  0
    2.1432   -1.1794    2.3607 H   0  0  0  0  0  0  0  0  0  0  0  0
   -1.4105   -1.2310   -1.0770 H   0  0  0  0  0  0  0  0  0  0  0  0
    2.8257   -4.5812    6.1430 H   0  0  0  0  0  0  0  0  0  0  0  0
   -3.3374   -2.7312   -1.5671 H   0  0  0  0  0  0  0  0  0  0  0  0
    3.4298   -1.5964    5.8488 H   0  0  0  0  0  0  0  0  0  0  0  0
    4.6436   -2.5497    4.9717 H   0  0  0  0  0  0  0  0  0  0  0  0
    3.7624   -1.2592    4.1424 H   0  0  0  0  0  0  0  0  0  0  0  0
    1.2736   -6.9685    5.0510 H   0  0  0  0  0  0  0  0  0  0  0  0
    0.0100   -6.0239    5.8674 H   0  0  0  0  0  0  0  0  0  0  0  0
   -0.1420   -6.4097    4.1464 H   0  0  0  0  0  0  0  0  0  0  0  0
   -5.7865   -4.2788   -2.2179 H   0  0  0  0  0  0  0  0  0  0  0  0
   -4.2163   -7.1354    1.5758 H   0  0  0  0  0  0  0  0  0  0  0  0
   -7.0854   -6.2760   -1.5243 H   0  0  0  0  0  0  0  0  0  0  0  0
   -6.3128   -7.6866    0.3516 H   0  0  0  0  0  0  0  0  0  0  0  0
    0.5931    1.9389   -0.1818 H   0  0  0  0  0  0  0  0  0  0  0  0
    0.1270    0.7634   -1.4286 H   0  0  0  0  0  0  0  0  0  0  0  0
   -0.9317    1.0643   -0.0042 H   0  0  0  0  0  0  0  0  0  0  0  0
  1 11  1  0  0  0  0
  1 24  1  0  0  0  0
  2  5  1  0  0  0  0
  2  6  2  0  0  0  0
  3  7  1  0  0  0  0
  3 13  1  0  0  0  0
  3 25  1  0  0  0  0
  4 10  1  0  0  0  0
  4 17  1  0  0  0  0
  4 26  1  0  0  0  0
  5  9  2  3  0  0  0
  5 11  1  0  0  0  0
  6 10  1  0  0  0  0
  6 12  1  0  0  0  0
  7  8  2  0  0  0  0
  7  9  1  0  0  0  0
  8 14  1  0  0  0  0
  8 18  1  0  0  0  0
  9 27  1  0  0  0  0
 10 16  2  0  0  0  0
 11 12  2  0  0  0  0
 12 28  1  0  0  0  0
 13 14  2  0  0  0  0
 13 19  1  0  0  0  0
 14 29  1  0  0  0  0
 15 16  1  0  0  0  0
 15 17  2  0  0  0  0
 15 20  1  0  0  0  0
 16 30  1  0  0  0  0
 17 21  1  0  0  0  0
 18 31  1  0  0  0  0
 18 32  1  0  0  0  0
 18 33  1  0  0  0  0
 19 34  1  0  0  0  0
 19 35  1  0  0  0  0
 19 36  1  0  0  0  0
 20 22  2  0  0  0  0
 20 37  1  0  0  0  0
 21 23  2  0  0  0  0
 21 38  1  0  0  0  0
 22 23  1  0  0  0  0
 22 39  1  0  0  0  0
 23 40  1  0  0  0  0
 24 41  1  0  0  0  0
 24 42  1  0  0  0  0
 24 43  1  0  0  0  0
M  END
>  <Mol_ID>
6018

>  <Formula>
C20H19N3O

>  <MolWeight>
317.38436

>  <Cat>
S6709

>  <Name>
Obatoclax (GX15-070)

>  <Synonyms>
N/A

>  <Target>
Bcl-2

>  <Form>
Free Base

>  <CAS>
803712-67-6

>  <URL>
http://www.selleckchem.com/products/obatoclax-gx15-070.html

$$$$
