Oclacitinib maleate.cdx
 OpenBabel08302520413D

 58 59  0  0  0  0  0  0  0  0999 V2000
   -1.7832    0.6035    1.1918 N   0  0  0  0  0  0  0  0  0  0  0  0
   -1.5942   -0.6257    1.7030 C   0  0  0  0  0  0  0  0  0  0  0  0
   -0.4703   -1.1314    2.2112 N   0  0  0  0  0  0  0  0  0  0  0  0
    0.5206   -0.2350    2.1701 C   0  0  0  0  0  0  0  0  0  0  0  0
    0.4675    1.0804    1.7137 C   0  0  0  0  0  0  0  0  0  0  0  0
   -0.7865    1.5392    1.2046 C   0  0  0  0  0  0  0  0  0  0  0  0
    1.7854   -0.5155    2.6010 N   0  0  0  0  0  0  0  0  0  0  0  0
    2.5783    0.5841    2.4516 C   0  0  0  0  0  0  0  0  0  0  0  0
    1.7845    1.5955    1.9485 C   0  0  0  0  0  0  0  0  0  0  0  0
   -1.0951    2.8111    0.7391 N   0  0  0  0  0  0  0  0  0  0  0  0
   -0.0780    3.8093    0.4566 C   0  0  0  0  0  0  0  0  0  0  0  0
   -2.4927    3.2932    0.6036 C   0  0  2  0  0  0  0  0  0  0  0  0
   -3.4417    2.8679    1.7311 C   0  0  0  0  0  0  0  0  0  0  0  0
   -4.8122    3.5225    1.5919 C   0  0  0  0  0  0  0  0  0  0  0  0
   -5.4514    3.2851    0.2085 C   0  0  2  0  0  0  0  0  0  0  0  0
   -4.4742    3.6694   -0.9160 C   0  0  0  0  0  0  0  0  0  0  0  0
   -3.0994    2.9996   -0.7708 C   0  0  0  0  0  0  0  0  0  0  0  0
   -6.7796    4.0621    0.1557 C   0  0  0  0  0  0  0  0  0  0  0  0
   -7.7186    3.8341   -1.3486 S   0  0  0  0  0  0  0  0  0  0  0  0
   -9.1460    4.6745   -0.9683 N   0  0  0  0  0  0  0  0  0  0  0  0
  -10.0736    4.8084   -2.1120 C   0  0  0  0  0  0  0  0  0  0  0  0
   -7.0821    4.5507   -2.4325 O   0  0  0  0  0  0  0  0  0  0  0  0
   -8.0925    2.4437   -1.4626 O   0  0  0  0  0  0  0  0  0  0  0  0
    0.8615   -0.3642   -1.9356 C   0  0  0  0  0  0  0  0  0  0  0  0
    0.1063   -1.4331   -1.6476 C   0  0  0  0  0  0  0  0  0  0  0  0
    0.4611    1.0310   -2.1808 C   0  0  0  0  0  0  0  0  0  0  0  0
   -1.3402   -1.5521   -1.4380 C   0  0  0  0  0  0  0  0  0  0  0  0
    1.5312    1.8281   -1.9917 O   0  0  0  0  0  0  0  0  0  0  0  0
   -0.5885    1.4998   -2.5616 O   0  0  0  0  0  0  0  0  0  0  0  0
   -1.8625   -2.5190   -0.9078 O   0  0  0  0  0  0  0  0  0  0  0  0
   -2.0541   -0.5213   -1.8791 O   0  0  0  0  0  0  0  0  0  0  0  0
   -2.4550   -1.2867    1.6846 H   0  0  0  0  0  0  0  0  0  0  0  0
    2.0601   -1.4160    2.9704 H   0  0  0  0  0  0  0  0  0  0  0  0
    3.6242    0.5596    2.7261 H   0  0  0  0  0  0  0  0  0  0  0  0
    2.1479    2.5951    1.7625 H   0  0  0  0  0  0  0  0  0  0  0  0
   -0.3069    4.3218   -0.4860 H   0  0  0  0  0  0  0  0  0  0  0  0
   -0.0590    4.5635    1.2506 H   0  0  0  0  0  0  0  0  0  0  0  0
    0.9244    3.4091    0.3184 H   0  0  0  0  0  0  0  0  0  0  0  0
   -2.4409    4.3904    0.6752 H   0  0  0  0  0  0  0  0  0  0  0  0
   -3.6218    1.7907    1.7320 H   0  0  0  0  0  0  0  0  0  0  0  0
   -3.0034    3.1213    2.7030 H   0  0  0  0  0  0  0  0  0  0  0  0
   -5.4697    3.1210    2.3731 H   0  0  0  0  0  0  0  0  0  0  0  0
   -4.7146    4.5984    1.7815 H   0  0  0  0  0  0  0  0  0  0  0  0
   -5.6699    2.2132    0.1072 H   0  0  0  0  0  0  0  0  0  0  0  0
   -4.8848    3.3840   -1.8899 H   0  0  0  0  0  0  0  0  0  0  0  0
   -4.3456    4.7595   -0.9307 H   0  0  0  0  0  0  0  0  0  0  0  0
   -2.4434    3.3759   -1.5655 H   0  0  0  0  0  0  0  0  0  0  0  0
   -3.1992    1.9201   -0.9301 H   0  0  0  0  0  0  0  0  0  0  0  0
   -7.4300    3.7109    0.9662 H   0  0  0  0  0  0  0  0  0  0  0  0
   -6.6171    5.1364    0.2807 H   0  0  0  0  0  0  0  0  0  0  0  0
   -9.6166    4.2279   -0.1798 H   0  0  0  0  0  0  0  0  0  0  0  0
  -10.4388    3.8242   -2.4194 H   0  0  0  0  0  0  0  0  0  0  0  0
  -10.9372    5.4027   -1.7980 H   0  0  0  0  0  0  0  0  0  0  0  0
   -9.5995    5.3168   -2.9550 H   0  0  0  0  0  0  0  0  0  0  0  0
    1.9371   -0.5132   -1.9770 H   0  0  0  0  0  0  0  0  0  0  0  0
    0.6138   -2.3756   -1.4665 H   0  0  0  0  0  0  0  0  0  0  0  0
    1.1592    2.7088   -2.2065 H   0  0  0  0  0  0  0  0  0  0  0  0
   -2.9579   -0.6410   -1.5272 H   0  0  0  0  0  0  0  0  0  0  0  0
  1  2  2  0  0  0  0
  2  3  1  0  0  0  0
  2 32  1  0  0  0  0
  3  4  2  0  0  0  0
  4  5  1  0  0  0  0
  4  7  1  0  0  0  0
  5  6  2  0  0  0  0
  6  1  1  0  0  0  0
  6 10  1  0  0  0  0
  7  8  1  0  0  0  0
  7 33  1  0  0  0  0
  8  9  2  0  0  0  0
  8 34  1  0  0  0  0
  9  5  1  0  0  0  0
  9 35  1  0  0  0  0
 10 11  1  0  0  0  0
 11 36  1  0  0  0  0
 11 37  1  0  0  0  0
 11 38  1  0  0  0  0
 12 10  1  0  0  0  0
 12 13  1  0  0  0  0
 12 39  1  1  0  0  0
 13 14  1  0  0  0  0
 13 40  1  0  0  0  0
 13 41  1  0  0  0  0
 14 15  1  0  0  0  0
 14 42  1  0  0  0  0
 14 43  1  0  0  0  0
 15 16  1  0  0  0  0
 15 44  1  6  0  0  0
 15 18  1  0  0  0  0
 16 17  1  0  0  0  0
 16 45  1  0  0  0  0
 16 46  1  0  0  0  0
 17 12  1  0  0  0  0
 17 47  1  0  0  0  0
 17 48  1  0  0  0  0
 18 19  1  0  0  0  0
 18 49  1  0  0  0  0
 18 50  1  0  0  0  0
 19 20  1  0  0  0  0
 19 22  2  0  0  0  0
 19 23  2  0  0  0  0
 20 21  1  0  0  0  0
 20 51  1  0  0  0  0
 21 52  1  0  0  0  0
 21 53  1  0  0  0  0
 21 54  1  0  0  0  0
 24 25  2  0  0  0  0
 24 26  1  0  0  0  0
 24 55  1  0  0  0  0
 25 27  1  0  0  0  0
 25 56  1  0  0  0  0
 26 28  1  0  0  0  0
 26 29  2  0  0  0  0
 27 30  2  0  0  0  0
 27 31  1  0  0  0  0
 28 57  1  0  0  0  0
 31 58  1  0  0  0  0
M  END
>  <Mol_ID>
3923

>  <Formula>
C19H27N5O6S

>  <MolWeight>
453.51258

>  <Cat>
S8195

>  <Name>
Oclacitinib?maleate

>  <Synonyms>
PF-03394197

>  <Target>
JAK

>  <Form>
maleate

>  <CAS>
1640292-55-2

>  <URL>
http://selleckchem.com/products/oclacitinib-maleate.html

$$$$
