Octyl acetate
 OpenBabel08302521373D

 32 31  0  0  0  0  0  0  0  0999 V2000
    1.1043    0.0708    0.0223 C   0  0  3  0  0  0  0  0  0  0  0  0
    0.6983    1.5503   -0.1431 C   0  0  0  0  0  0  0  0  0  0  0  0
    0.4692   -0.8600   -1.0443 C   0  0  0  0  0  0  0  0  0  0  0  0
    0.7104   -0.4478    1.4262 C   0  0  0  0  0  0  0  0  0  0  0  0
    1.1761    2.1214   -1.3697 O   0  0  0  0  0  0  0  0  0  0  0  0
    0.8610   -0.6325   -2.5119 C   0  0  0  0  0  0  0  0  0  0  0  0
    1.3884    0.2985    2.5689 C   0  0  0  0  0  0  0  0  0  0  0  0
    2.4769    2.5229   -1.3742 C   0  0  0  0  0  0  0  0  0  0  0  0
    2.3594   -0.6798   -2.8195 C   0  0  0  0  0  0  0  0  0  0  0  0
    2.8455    3.0539   -2.7281 C   0  0  0  0  0  0  0  0  0  0  0  0
    3.2431    2.4707   -0.4248 O   0  0  0  0  0  0  0  0  0  0  0  0
    2.9743   -2.0609   -2.6758 C   0  0  0  0  0  0  0  0  0  0  0  0
    2.1926   -0.0146   -0.0659 H   0  0  0  0  0  0  0  0  0  0  0  0
   -0.3932    1.6377   -0.1548 H   0  0  0  0  0  0  0  0  0  0  0  0
    1.0473    2.1682    0.6918 H   0  0  0  0  0  0  0  0  0  0  0  0
    0.7066   -1.9004   -0.7894 H   0  0  0  0  0  0  0  0  0  0  0  0
   -0.6239   -0.7813   -0.9729 H   0  0  0  0  0  0  0  0  0  0  0  0
   -0.3769   -0.3972    1.5594 H   0  0  0  0  0  0  0  0  0  0  0  0
    0.9881   -1.5070    1.5043 H   0  0  0  0  0  0  0  0  0  0  0  0
    0.3529   -1.3912   -3.1220 H   0  0  0  0  0  0  0  0  0  0  0  0
    0.4559    0.3265   -2.8513 H   0  0  0  0  0  0  0  0  0  0  0  0
    0.9026    1.2617    2.7554 H   0  0  0  0  0  0  0  0  0  0  0  0
    1.3203   -0.2839    3.4933 H   0  0  0  0  0  0  0  0  0  0  0  0
    2.4466    0.4774    2.3570 H   0  0  0  0  0  0  0  0  0  0  0  0
    2.5130   -0.3403   -3.8522 H   0  0  0  0  0  0  0  0  0  0  0  0
    2.9101    0.0154   -2.1846 H   0  0  0  0  0  0  0  0  0  0  0  0
    2.7086    4.1372   -2.7472 H   0  0  0  0  0  0  0  0  0  0  0  0
    3.8895    2.8016   -2.9387 H   0  0  0  0  0  0  0  0  0  0  0  0
    2.2323    2.5880   -3.5027 H   0  0  0  0  0  0  0  0  0  0  0  0
    2.5793   -2.7442   -3.4348 H   0  0  0  0  0  0  0  0  0  0  0  0
    4.0589   -2.0003   -2.8110 H   0  0  0  0  0  0  0  0  0  0  0  0
    2.7849   -2.4908   -1.6874 H   0  0  0  0  0  0  0  0  0  0  0  0
  1  2  1  0  0  0  0
  1  3  1  0  0  0  0
  1  4  1  0  0  0  0
  1 13  1  0  0  0  0
  2  5  1  0  0  0  0
  2 14  1  0  0  0  0
  2 15  1  0  0  0  0
  3  6  1  0  0  0  0
  3 16  1  0  0  0  0
  3 17  1  0  0  0  0
  4  7  1  0  0  0  0
  4 18  1  0  0  0  0
  4 19  1  0  0  0  0
  5  8  1  0  0  0  0
  6  9  1  0  0  0  0
  6 20  1  0  0  0  0
  6 21  1  0  0  0  0
  7 22  1  0  0  0  0
  7 23  1  0  0  0  0
  7 24  1  0  0  0  0
  8 10  1  0  0  0  0
  8 11  2  0  0  0  0
  9 12  1  0  0  0  0
  9 25  1  0  0  0  0
  9 26  1  0  0  0  0
 10 27  1  0  0  0  0
 10 28  1  0  0  0  0
 10 29  1  0  0  0  0
 12 30  1  0  0  0  0
 12 31  1  0  0  0  0
 12 32  1  0  0  0  0
M  END
>  <Mol_ID>
7365

>  <Formula>
C10H20O2

>  <MolWeight>
172.2646

>  <Cat>
E4414

>  <Name>
Octyl acetate

>  <Synonyms>
Acetic acid octyl ester

>  <Target>
Others

>  <Form>
Free base

>  <CAS>
103-09-3

>  <URL>
https://www.selleckchem.com/products/octyl-acetate.html

$$$$
