OCUSULF-10 (sulfacetamide sodium).cdx
 OpenBabel08302522043D

 23 23  0  0  0  0  0  0  0  0999 V2000
    0.2221    1.1936    0.0141 C   0  0  0  0  0  0  0  0  0  0  0  0
    0.9377   -0.0095    0.0092 C   0  0  0  0  0  0  0  0  0  0  0  0
    0.2284   -1.2138   -0.0509 C   0  0  0  0  0  0  0  0  0  0  0  0
   -1.1690   -1.2229   -0.0163 C   0  0  0  0  0  0  0  0  0  0  0  0
   -1.8665   -0.0186    0.0614 C   0  0  0  0  0  0  0  0  0  0  0  0
   -1.1770    1.1950    0.0613 C   0  0  0  0  0  0  0  0  0  0  0  0
    2.3310   -0.0042   -0.1749 N   0  0  0  0  0  0  0  0  0  0  0  0
   -3.6869   -0.0290   -0.0007 S   0  0  0  0  0  0  0  0  0  0  0  0
   -4.2498   -0.1099    1.4842 N   0  5  0  0  0  0  0  0  0  0  0  0
   -4.0549   -1.2243    2.1833 C   0  0  0  0  0  0  0  0  0  0  0  0
   -5.0466   -1.3232    3.3211 C   0  0  0  0  0  0  0  0  0  0  0  0
   -3.2150   -2.1120    2.0496 O   0  0  0  0  0  0  0  0  0  0  0  0
   -3.9653    1.2604   -0.6395 O   0  0  0  0  0  0  0  0  0  0  0  0
   -3.9831   -1.1706   -0.8656 O   0  0  0  0  0  0  0  0  0  0  0  0
    0.7455    2.1436   -0.0295 H   0  0  0  0  0  0  0  0  0  0  0  0
    0.7513   -2.1615   -0.1308 H   0  0  0  0  0  0  0  0  0  0  0  0
   -1.7159   -2.1615   -0.0567 H   0  0  0  0  0  0  0  0  0  0  0  0
   -1.7241    2.1332    0.0612 H   0  0  0  0  0  0  0  0  0  0  0  0
    2.7683   -0.8588    0.1538 H   0  0  0  0  0  0  0  0  0  0  0  0
    2.7741    0.8297    0.1939 H   0  0  0  0  0  0  0  0  0  0  0  0
   -5.7291   -2.1569    3.1272 H   0  0  0  0  0  0  0  0  0  0  0  0
   -4.4943   -1.5221    4.2464 H   0  0  0  0  0  0  0  0  0  0  0  0
   -5.6337   -0.4135    3.4674 H   0  0  0  0  0  0  0  0  0  0  0  0
  1  2  2  0  0  0  0
  1 15  1  0  0  0  0
  2  3  1  0  0  0  0
  2  7  1  0  0  0  0
  3  4  2  0  0  0  0
  3 16  1  0  0  0  0
  4  5  1  0  0  0  0
  4 17  1  0  0  0  0
  5  6  2  0  0  0  0
  5  8  1  0  0  0  0
  6  1  1  0  0  0  0
  6 18  1  0  0  0  0
  7 19  1  0  0  0  0
  7 20  1  0  0  0  0
  8  9  1  0  0  0  0
  8 13  2  0  0  0  0
  8 14  2  0  0  0  0
  9 10  1  0  0  0  0
 10 11  1  0  0  0  0
 10 12  2  0  0  0  0
 11 21  1  0  0  0  0
 11 22  1  0  0  0  0
 11 23  1  0  0  0  0
M  CHG  1   9  -1
M  END
>  <Mol_ID>
1243

>  <Formula>
C8H9N2NaO3S

>  <MolWeight>
236.22343

>  <Cat>
S4081

>  <Name>
Sulfacetamide Sodium

>  <Synonyms>
N/A

>  <Target>
Anti-infection,Autophagy

>  <Form>
Sodium Salt

>  <CAS>
127-56-0

>  <URL>
http://selleckchem.com/products/sulfacetamide-sodium.html

$$$$
