OD36
 OpenBabel08302521352D

 38 41  0  0  0  0  0  0  0  0999 V2000
    4.9100    5.3053    0.0000 C   0  0  0  0  0  0  0  0  0  0  0  0
    3.5747    5.5213    0.0000 C   0  0  0  0  0  0  0  0  0  0  0  0
    5.5561    4.0823    0.0000 C   0  0  0  0  0  0  0  0  0  0  0  0
    5.5688    6.5549    0.0000 C   0  0  0  0  0  0  0  0  0  0  0  0
    3.3229    6.9073    0.0000 N   0  0  0  0  0  0  0  0  0  0  0  0
    2.5333    4.6136    0.0000 N   0  0  0  0  0  0  0  0  0  0  0  0
    4.8598    2.8820    0.0000 C   0  0  0  0  0  0  0  0  0  0  0  0
    6.9586    4.0805    0.0000 C   0  0  0  0  0  0  0  0  0  0  0  0
    4.5753    7.5464    0.0000 N   0  0  0  0  0  0  0  0  0  0  0  0
    1.9964    7.3619    0.0000 C   0  0  0  0  0  0  0  0  0  0  0  0
    1.2119    5.0681    0.0000 C   0  0  0  0  0  0  0  0  0  0  0  0
    5.5621    1.6490    0.0000 C   0  0  0  0  0  0  0  0  0  0  0  0
    7.6594    2.8695    0.0000 C   0  0  0  0  0  0  0  0  0  0  0  0
    0.9357    6.4443    0.0000 C   0  0  0  0  0  0  0  0  0  0  0  0
    0.0919    4.3099    0.0000 N   0  0  0  0  0  0  0  0  0  0  0  0
    6.9583    1.6577    0.0000 C   0  0  0  0  0  0  0  0  0  0  0  0
    4.6610    0.5015    0.0000 O   0  0  0  0  0  0  0  0  0  0  0  0
    0.0000    2.9362    0.0000 C   0  0  0  0  0  0  0  0  0  0  0  0
    3.3225    0.8619    0.0000 C   0  0  0  0  0  0  0  0  0  0  0  0
    1.0922    2.0984    0.0000 C   0  0  0  0  0  0  0  0  0  0  0  0
    2.2383    0.0000    0.0000 C   0  0  0  0  0  0  0  0  0  0  0  0
    0.9536    0.6882    0.0000 O   0  0  0  0  0  0  0  0  0  0  0  0
    6.5891    6.7097    0.0000 H   0  0  0  0  0  0  0  0  0  0  0  0
    2.7220    3.6473    0.0000 H   0  0  0  0  0  0  0  0  0  0  0  0
    3.8278    2.8861    0.0000 H   0  0  0  0  0  0  0  0  0  0  0  0
    7.4747    4.9742    0.0000 H   0  0  0  0  0  0  0  0  0  0  0  0
    1.8000    8.3750    0.0000 H   0  0  0  0  0  0  0  0  0  0  0  0
    8.6914    2.8696    0.0000 H   0  0  0  0  0  0  0  0  0  0  0  0
   -0.0407    6.7785    0.0000 H   0  0  0  0  0  0  0  0  0  0  0  0
    7.4767    0.7653    0.0000 H   0  0  0  0  0  0  0  0  0  0  0  0
   -0.9749    2.4952    0.0000 H   0  0  0  0  0  0  0  0  0  0  0  0
   -0.1225    1.8732    0.0000 H   0  0  0  0  0  0  0  0  0  0  0  0
    3.1054    1.9096    0.0000 H   0  0  0  0  0  0  0  0  0  0  0  0
    2.3164    1.2262    0.0000 H   0  0  0  0  0  0  0  0  0  0  0  0
    2.0738    2.5242    0.0000 H   0  0  0  0  0  0  0  0  0  0  0  0
    1.9569    1.4682    0.0000 H   0  0  0  0  0  0  0  0  0  0  0  0
    2.3344   -1.0657    0.0000 H   0  0  0  0  0  0  0  0  0  0  0  0
    1.3459   -0.5904    0.0000 H   0  0  0  0  0  0  0  0  0  0  0  0
  1  2  2  0  0  0  0
  1  3  1  0  0  0  0
  1  4  1  0  0  0  0
  2  5  1  0  0  0  0
  2  6  1  0  0  0  0
  3  7  2  0  0  0  0
  3  8  1  0  0  0  0
  4  9  2  0  0  0  0
  4 23  1  0  0  0  0
  5  9  1  0  0  0  0
  5 10  1  0  0  0  0
  6 11  1  0  0  0  0
  6 24  1  0  0  0  0
  7 12  1  0  0  0  0
  7 25  1  0  0  0  0
  8 13  2  0  0  0  0
  8 26  1  0  0  0  0
 10 14  2  0  0  0  0
 10 27  1  0  0  0  0
 11 14  1  0  0  0  0
 11 15  2  0  0  0  0
 12 16  2  0  0  0  0
 12 17  1  0  0  0  0
 13 16  1  0  0  0  0
 13 28  1  0  0  0  0
 14 29  1  0  0  0  0
 15 18  1  0  0  0  0
 16 30  1  0  0  0  0
 17 19  1  0  0  0  0
 18 20  1  0  0  0  0
 18 31  1  0  0  0  0
 18 32  1  0  0  0  0
 19 21  1  0  0  0  0
 19 33  1  0  0  0  0
 19 34  1  0  0  0  0
 20 22  1  0  0  0  0
 20 35  1  0  0  0  0
 20 36  1  0  0  0  0
 21 22  1  0  0  0  0
 21 37  1  0  0  0  0
 21 38  1  0  0  0  0
M  END
>  <Mol_ID>
6977

>  <Formula>
C16H15ClN4O2

>  <MolWeight>
330.7689

>  <Cat>
E1734

>  <Name>
OD36

>  <Target>
RIP kinase

>  <Form>
free base

>  <CAS>
1638644-62-8

>  <URL>
https://www.selleckchem.com/products/od36.html

$$$$
