ODQ
 OpenBabel08302521303D

 19 21  0  0  0  0  0  0  0  0999 V2000
    0.9141    0.5154   -0.0013 N   0  0  0  0  0  0  0  0  0  0  0  0
    1.6873   -0.5724   -0.0014 C   0  0  0  0  0  0  0  0  0  0  0  0
    1.0282   -1.9020    0.0000 C   0  0  0  0  0  0  0  0  0  0  0  0
   -0.2614   -2.0315    0.0015 N   0  0  0  0  0  0  0  0  0  0  0  0
   -1.0474   -0.8547    0.0014 C   0  0  0  0  0  0  0  0  0  0  0  0
   -2.4366   -0.9915    0.0029 C   0  0  0  0  0  0  0  0  0  0  0  0
   -3.2594    0.1356    0.0023 C   0  0  0  0  0  0  0  0  0  0  0  0
   -2.6963    1.4112    0.0002 C   0  0  0  0  0  0  0  0  0  0  0  0
   -1.3085    1.5682   -0.0009 C   0  0  0  0  0  0  0  0  0  0  0  0
   -0.4821    0.4411   -0.0002 C   0  0  0  0  0  0  0  0  0  0  0  0
    3.0581    1.0664   -0.0032 O   0  0  0  0  0  0  0  0  0  0  0  0
    2.9565   -0.3631   -0.0025 N   0  0  0  0  0  0  0  0  0  0  0  0
    1.7628    1.5613   -0.0020 C   0  0  0  0  0  0  0  0  0  0  0  0
    1.5071    2.7565   -0.0014 O   0  0  0  0  0  0  0  0  0  0  0  0
    1.7009   -2.7731   -0.0002 H   0  0  0  0  0  0  0  0  0  0  0  0
   -2.8776   -1.9852    0.0045 H   0  0  0  0  0  0  0  0  0  0  0  0
   -4.3404    0.0169    0.0033 H   0  0  0  0  0  0  0  0  0  0  0  0
   -3.3405    2.2880   -0.0005 H   0  0  0  0  0  0  0  0  0  0  0  0
   -0.9005    2.5757   -0.0026 H   0  0  0  0  0  0  0  0  0  0  0  0
  1  2  1  0  0  0  0
  1 10  1  0  0  0  0
  2  3  1  0  0  0  0
  3  4  2  0  0  0  0
  3 15  1  0  0  0  0
  4  5  1  0  0  0  0
  5  6  2  0  0  0  0
  5 10  1  0  0  0  0
  6  7  1  0  0  0  0
  6 16  1  0  0  0  0
  7  8  2  0  0  0  0
  7 17  1  0  0  0  0
  8  9  1  0  0  0  0
  8 18  1  0  0  0  0
  9 10  2  0  0  0  0
  9 19  1  0  0  0  0
 11 12  1  0  0  0  0
 11 13  1  0  0  0  0
 12  2  2  0  0  0  0
 13  1  1  0  0  0  0
 13 14  2  0  0  0  0
M  END
>  <Mol_ID>
5617

>  <Formula>
C9H5N3O2

>  <MolWeight>
187.1549

>  <Cat>
S9796

>  <Name>
ODQ

>  <Synonyms>
1H-ODQ

>  <Target>
Guanylate Cyclase

>  <Form>
Free Base

>  <CAS>
41443-28-1

>  <URL>
http://www.selleckchem.com/products/odq.html

$$$$
