OGG1-IN-08
 OpenBabel08302521313D

 21 22  0  0  0  0  0  0  0  0999 V2000
    1.7402    0.7646   -0.0271 S   0  0  0  0  0  0  0  0  0  0  0  0
    3.7940   -2.5831    0.0419 O   0  0  0  0  0  0  0  0  0  0  0  0
    4.5163   -0.4181   -0.0381 N   0  0  0  0  0  0  0  0  0  0  0  0
    5.8756   -0.8103   -0.1111 N   0  0  0  0  0  0  0  0  0  0  0  0
   -0.2169   -0.9187   -0.0224 C   0  0  0  0  0  0  0  0  0  0  0  0
    0.0454    0.4531   -0.0189 C   0  0  0  0  0  0  0  0  0  0  0  0
    0.9985   -1.6761   -0.0261 C   0  0  0  0  0  0  0  0  0  0  0  0
    2.1378   -0.8966   -0.0202 C   0  0  0  0  0  0  0  0  0  0  0  0
   -1.5671   -1.3450   -0.0179 C   0  0  0  0  0  0  0  0  0  0  0  0
   -0.9989    1.3991   -0.0087 C   0  0  0  0  0  0  0  0  0  0  0  0
   -2.6049   -0.4111   -0.0067 C   0  0  0  0  0  0  0  0  0  0  0  0
   -2.3219    0.9466   -0.0014 C   0  0  0  0  0  0  0  0  0  0  0  0
    3.5098   -1.3842   -0.0028 C   0  0  0  0  0  0  0  0  0  0  0  0
    4.2673    0.5580   -0.1834 H   0  0  0  0  0  0  0  0  0  0  0  0
    6.2800   -0.7191    0.8247 H   0  0  0  0  0  0  0  0  0  0  0  0
    5.8807   -1.8273   -0.2817 H   0  0  0  0  0  0  0  0  0  0  0  0
    1.0361   -2.7599   -0.0258 H   0  0  0  0  0  0  0  0  0  0  0  0
   -1.7980   -2.4081   -0.0198 H   0  0  0  0  0  0  0  0  0  0  0  0
   -0.7839    2.4639   -0.0042 H   0  0  0  0  0  0  0  0  0  0  0  0
   -3.6370   -0.7535   -0.0006 H   0  0  0  0  0  0  0  0  0  0  0  0
   -3.1363    1.6680    0.0091 H   0  0  0  0  0  0  0  0  0  0  0  0
  1  6  1  0  0  0  0
  1  8  1  0  0  0  0
  2 13  2  0  0  0  0
  3  4  1  0  0  0  0
  3 13  1  0  0  0  0
  3 14  1  0  0  0  0
  4 15  1  0  0  0  0
  4 16  1  0  0  0  0
  5  6  2  0  0  0  0
  5  7  1  0  0  0  0
  5  9  1  0  0  0  0
  6 10  1  0  0  0  0
  7  8  2  0  0  0  0
  7 17  1  0  0  0  0
  8 13  1  0  0  0  0
  9 11  2  0  0  0  0
  9 18  1  0  0  0  0
 10 12  2  0  0  0  0
 10 19  1  0  0  0  0
 11 12  1  0  0  0  0
 11 20  1  0  0  0  0
 12 21  1  0  0  0  0
M  END
>  <Mol_ID>
5855

>  <Formula>
C9H6Cl2N2OS

>  <MolWeight>
261.12774

>  <Cat>
S0841

>  <Name>
OGG1-IN-08

>  <Synonyms>
O8 OGG1 Inhibitor-Bio-X

>  <Target>
OGG1

>  <Form>
Free Base

>  <CAS>
350997-39-6

>  <URL>
http://www.selleckchem.com/products/ogg1-in-08.html

$$$$
