ON-01910.cdx
 OpenBabel08302519553D

 55 56  0  0  0  0  0  0  0  0999 V2000
    2.0052    1.8675    1.5372 C   0  0  0  0  0  0  0  0  0  0  0  0
    1.1486    1.4917    2.5984 C   0  0  0  0  0  0  0  0  0  0  0  0
   -0.1904    1.9569    2.6431 C   0  0  0  0  0  0  0  0  0  0  0  0
   -0.7088    2.7890    1.6587 C   0  0  0  0  0  0  0  0  0  0  0  0
    0.1304    3.1769    0.6188 C   0  0  0  0  0  0  0  0  0  0  0  0
    1.4658    2.7371    0.5577 C   0  0  0  0  0  0  0  0  0  0  0  0
    2.1407    3.1023   -0.5833 O   0  0  0  0  0  0  0  0  0  0  0  0
   -1.9874    3.2708    1.5950 O   0  0  0  0  0  0  0  0  0  0  0  0
    1.3873    0.6821    3.6802 O   0  0  0  0  0  0  0  0  0  0  0  0
    3.2655    3.9511   -0.3628 C   0  0  0  0  0  0  0  0  0  0  0  0
   -2.9075    2.8603    2.6022 C   0  0  0  0  0  0  0  0  0  0  0  0
    2.6708    0.1379    3.9245 C   0  0  0  0  0  0  0  0  0  0  0  0
    3.4231    1.4417    1.4309 C   0  0  0  0  0  0  0  0  0  0  0  0
    3.9111    0.5336    0.5668 C   0  0  0  0  0  0  0  0  0  0  0  0
    5.6078    0.0496    0.6564 S   0  0  0  0  0  0  0  0  0  0  0  0
    6.3677    0.8923   -0.7368 C   0  0  0  0  0  0  0  0  0  0  0  0
    6.1667    0.5780    1.8883 O   0  0  0  0  0  0  0  0  0  0  0  0
    5.6224   -1.3790    0.3953 O   0  0  0  0  0  0  0  0  0  0  0  0
    7.8162    0.4772   -0.9380 C   0  0  0  0  0  0  0  0  0  0  0  0
    8.1150   -0.6284   -1.7552 C   0  0  0  0  0  0  0  0  0  0  0  0
    9.4393   -0.9655   -2.0562 C   0  0  0  0  0  0  0  0  0  0  0  0
   10.4969   -0.2100   -1.5413 C   0  0  0  0  0  0  0  0  0  0  0  0
   10.2386    0.9070   -0.7075 C   0  0  0  0  0  0  0  0  0  0  0  0
    8.8937    1.2279   -0.4204 C   0  0  0  0  0  0  0  0  0  0  0  0
   11.8163   -0.4553   -1.8512 O   0  0  0  0  0  0  0  0  0  0  0  0
   12.1587   -1.8160   -2.0766 C   0  0  0  0  0  0  0  0  0  0  0  0
   11.3072    1.7308   -0.3394 N   0  0  0  0  0  0  0  0  0  0  0  0
   11.3337    2.4060    0.9715 C   0  0  0  0  0  0  0  0  0  0  0  0
   12.7822    2.5599    1.5374 C   0  0  0  0  0  0  0  0  0  0  0  0
   12.8704    3.2351    2.6060 O   0  5  0  0  0  0  0  0  0  0  0  0
   13.6982    1.9785    0.8785 O   0  0  0  0  0  0  0  0  0  0  0  0
   -0.8072    1.6318    3.4772 H   0  0  0  0  0  0  0  0  0  0  0  0
   -0.2625    3.8222   -0.1641 H   0  0  0  0  0  0  0  0  0  0  0  0
    2.9748    4.9965   -0.4981 H   0  0  0  0  0  0  0  0  0  0  0  0
    3.7353    3.8428    0.6181 H   0  0  0  0  0  0  0  0  0  0  0  0
    4.0092    3.6999   -1.1260 H   0  0  0  0  0  0  0  0  0  0  0  0
   -2.9929    1.7697    2.6573 H   0  0  0  0  0  0  0  0  0  0  0  0
   -2.6406    3.2860    3.5751 H   0  0  0  0  0  0  0  0  0  0  0  0
   -3.8946    3.2495    2.3314 H   0  0  0  0  0  0  0  0  0  0  0  0
    2.9471   -0.5815    3.1498 H   0  0  0  0  0  0  0  0  0  0  0  0
    3.4154    0.9259    4.0562 H   0  0  0  0  0  0  0  0  0  0  0  0
    2.6166   -0.4124    4.8692 H   0  0  0  0  0  0  0  0  0  0  0  0
    4.0832    1.9472    2.1345 H   0  0  0  0  0  0  0  0  0  0  0  0
    3.2858   -0.0111   -0.1283 H   0  0  0  0  0  0  0  0  0  0  0  0
    5.7866    0.6354   -1.6297 H   0  0  0  0  0  0  0  0  0  0  0  0
    6.2903    1.9708   -0.5741 H   0  0  0  0  0  0  0  0  0  0  0  0
    7.3184   -1.2195   -2.1987 H   0  0  0  0  0  0  0  0  0  0  0  0
    9.6222   -1.7932   -2.7325 H   0  0  0  0  0  0  0  0  0  0  0  0
    8.6947    2.1084    0.1857 H   0  0  0  0  0  0  0  0  0  0  0  0
   11.7718   -2.4687   -1.2863 H   0  0  0  0  0  0  0  0  0  0  0  0
   11.8138   -2.1478   -3.0611 H   0  0  0  0  0  0  0  0  0  0  0  0
   13.2508   -1.8966   -2.0707 H   0  0  0  0  0  0  0  0  0  0  0  0
   12.2202    1.2668   -0.4674 H   0  0  0  0  0  0  0  0  0  0  0  0
   10.9012    3.4059    0.8639 H   0  0  0  0  0  0  0  0  0  0  0  0
   10.7624    1.8437    1.7180 H   0  0  0  0  0  0  0  0  0  0  0  0
  1  2  2  0  0  0  0
  1 13  1  0  0  0  0
  2  3  1  0  0  0  0
  2  9  1  0  0  0  0
  3  4  2  0  0  0  0
  3 32  1  0  0  0  0
  4  5  1  0  0  0  0
  4  8  1  0  0  0  0
  5  6  2  0  0  0  0
  5 33  1  0  0  0  0
  6  1  1  0  0  0  0
  6  7  1  0  0  0  0
  7 10  1  0  0  0  0
  8 11  1  0  0  0  0
  9 12  1  0  0  0  0
 10 34  1  0  0  0  0
 10 35  1  0  0  0  0
 10 36  1  0  0  0  0
 11 37  1  0  0  0  0
 11 38  1  0  0  0  0
 11 39  1  0  0  0  0
 12 40  1  0  0  0  0
 12 41  1  0  0  0  0
 12 42  1  0  0  0  0
 13 14  2  0  0  0  0
 13 43  1  0  0  0  0
 14 15  1  0  0  0  0
 14 44  1  0  0  0  0
 15 16  1  0  0  0  0
 15 17  2  0  0  0  0
 15 18  2  0  0  0  0
 16 19  1  0  0  0  0
 16 45  1  0  0  0  0
 16 46  1  0  0  0  0
 19 20  2  0  0  0  0
 20 21  1  0  0  0  0
 20 47  1  0  0  0  0
 21 22  2  0  0  0  0
 21 48  1  0  0  0  0
 22 23  1  0  0  0  0
 22 25  1  0  0  0  0
 23 24  2  0  0  0  0
 23 27  1  0  0  0  0
 24 19  1  0  0  0  0
 24 49  1  0  0  0  0
 25 26  1  0  0  0  0
 26 50  1  0  0  0  0
 26 51  1  0  0  0  0
 26 52  1  0  0  0  0
 27 28  1  0  0  0  0
 27 53  1  0  0  0  0
 28 29  1  0  0  0  0
 28 54  1  0  0  0  0
 28 55  1  0  0  0  0
 29 30  1  0  0  0  0
 29 31  2  0  0  0  0
M  CHG  1  30  -1
M  END
>  <Mol_ID>
220

>  <Formula>
C21H24NNaO8S

>  <MolWeight>
473.47193

>  <Cat>
S1362

>  <Name>
Rigosertib (ON-01910)

>  <Synonyms>
N/A

>  <Target>
Akt,Apoptosis related,PI3K,PLK

>  <Form>
Sodium Salt

>  <CAS>
1225497-78-8

>  <URL>
http://selleckchem.com/products/ON-01910.html

$$$$
