Ornidazole.cdx
 OpenBabel08302521353D

 24 24  0  0  0  0  0  0  0  0999 V2000
   -1.2236   -0.0331    0.0462 C   0  0  0  0  0  0  0  0  0  0  0  0
   -0.3940   -1.1229   -0.0399 C   0  0  0  0  0  0  0  0  0  0  0  0
    0.8884   -0.6430    0.0948 N   0  0  0  0  0  0  0  0  0  0  0  0
    0.7735    0.7298    0.2724 C   0  0  0  0  0  0  0  0  0  0  0  0
   -0.4918    1.1048    0.2395 N   0  0  0  0  0  0  0  0  0  0  0  0
   -0.7928   -2.4798   -0.2154 N   0  3  0  0  0  0  0  0  0  0  0  0
   -2.0077   -2.7014   -0.2081 O   0  0  0  0  0  0  0  0  0  0  0  0
    0.0895   -3.3325   -0.3476 O   0  5  0  0  0  0  0  0  0  0  0  0
    2.1473   -1.3587    0.0139 C   0  0  0  0  0  0  0  0  0  0  0  0
    2.7580   -1.7615    1.3645 C   0  0  3  0  0  0  0  0  0  0  0  0
    1.8985   -2.6919    2.2092 C   0  0  0  0  0  0  0  0  0  0  0  0
    4.0179   -2.3983    1.1231 O   0  0  0  0  0  0  0  0  0  0  0  0
    1.9074    1.6751    0.4625 C   0  0  0  0  0  0  0  0  0  0  0  0
   -2.3044   -0.0042   -0.0179 H   0  0  0  0  0  0  0  0  0  0  0  0
    2.0498   -2.2176   -0.6530 H   0  0  0  0  0  0  0  0  0  0  0  0
    2.8541   -0.7116   -0.5211 H   0  0  0  0  0  0  0  0  0  0  0  0
    2.9696   -0.8626    1.9535 H   0  0  0  0  0  0  0  0  0  0  0  0
    1.6889   -3.6278    1.6821 H   0  0  0  0  0  0  0  0  0  0  0  0
    2.4330   -2.9719    3.1234 H   0  0  0  0  0  0  0  0  0  0  0  0
    0.9537   -2.2227    2.4973 H   0  0  0  0  0  0  0  0  0  0  0  0
    3.8465   -3.2960    0.7858 H   0  0  0  0  0  0  0  0  0  0  0  0
    2.0978    2.2203   -0.4674 H   0  0  0  0  0  0  0  0  0  0  0  0
    1.6525    2.4053    1.2376 H   0  0  0  0  0  0  0  0  0  0  0  0
    2.8327    1.1828    0.7704 H   0  0  0  0  0  0  0  0  0  0  0  0
  1  2  2  0  0  0  0
  1 14  1  0  0  0  0
  2  3  1  0  0  0  0
  2  6  1  0  0  0  0
  3  4  1  0  0  0  0
  3  9  1  0  0  0  0
  4  5  2  0  0  0  0
  4 13  1  0  0  0  0
  5  1  1  0  0  0  0
  6  7  2  0  0  0  0
  6  8  1  0  0  0  0
  9 10  1  0  0  0  0
  9 15  1  0  0  0  0
  9 16  1  0  0  0  0
 10 11  1  0  0  0  0
 10 12  1  0  0  0  0
 10 17  1  0  0  0  0
 11 18  1  0  0  0  0
 11 19  1  0  0  0  0
 11 20  1  0  0  0  0
 12 21  1  0  0  0  0
 13 22  1  0  0  0  0
 13 23  1  0  0  0  0
 13 24  1  0  0  0  0
M  CHG  2   6   1   8  -1
M  END
>  <Mol_ID>
631

>  <Formula>
C7H10ClN3O3

>  <MolWeight>
219.6256

>  <Cat>
S3121

>  <Name>
Ornidazole

>  <Synonyms>
Ro7-0207, NSC 95075

>  <Target>
Bacterial

>  <Form>
free base

>  <CAS>
16773-42-5

>  <URL>
http://selleckchem.com/products/ornidazole.html

$$$$
