OSS_128167.cdx
 OpenBabel08302520433D

 41 43  0  0  0  0  0  0  0  0999 V2000
    1.3399   -0.2056    0.0175 C   0  0  0  0  0  0  0  0  0  0  0  0
    0.4733   -1.2994   -0.0108 C   0  0  0  0  0  0  0  0  0  0  0  0
   -0.9000   -1.0544   -0.1096 C   0  0  0  0  0  0  0  0  0  0  0  0
   -1.4065    0.2618   -0.1474 C   0  0  0  0  0  0  0  0  0  0  0  0
   -0.5273    1.3443   -0.0834 C   0  0  0  0  0  0  0  0  0  0  0  0
    0.8457    1.1043   -0.0127 C   0  0  0  0  0  0  0  0  0  0  0  0
    0.9050   -2.6426    0.0597 N   0  0  0  0  0  0  0  0  0  0  0  0
    2.1726   -3.0966    0.3945 C   0  0  0  0  0  0  0  0  0  0  0  0
    2.3089   -4.5420    0.3720 C   0  0  0  0  0  0  0  0  0  0  0  0
    3.1137   -2.3755    0.7139 O   0  0  0  0  0  0  0  0  0  0  0  0
    3.3975   -5.3405    0.6735 C   0  0  0  0  0  0  0  0  0  0  0  0
    2.9892   -6.6814    0.4868 C   0  0  0  0  0  0  0  0  0  0  0  0
    1.6776   -6.6244    0.0799 C   0  0  0  0  0  0  0  0  0  0  0  0
    1.2495   -5.3346    0.0093 O   0  0  0  0  0  0  0  0  0  0  0  0
   -2.8869    0.4291   -0.1642 C   0  0  0  0  0  0  0  0  0  0  0  0
   -3.4032    1.5463   -0.8135 N   0  0  0  0  0  0  0  0  0  0  0  0
   -3.5454   -0.4664    0.3566 O   0  0  0  0  0  0  0  0  0  0  0  0
   -4.7861    1.8411   -0.9559 C   0  0  0  0  0  0  0  0  0  0  0  0
   -5.7785    1.1834   -0.2227 C   0  0  0  0  0  0  0  0  0  0  0  0
   -7.1337    1.4447   -0.4329 C   0  0  0  0  0  0  0  0  0  0  0  0
   -7.5171    2.3928   -1.3730 C   0  0  0  0  0  0  0  0  0  0  0  0
   -6.5505    3.1099   -2.0890 C   0  0  0  0  0  0  0  0  0  0  0  0
   -5.1826    2.8256   -1.8727 C   0  0  0  0  0  0  0  0  0  0  0  0
   -6.8907    4.1676   -3.0867 C   0  0  0  0  0  0  0  0  0  0  0  0
   -8.8540    2.6105   -1.5875 O   0  0  0  0  0  0  0  0  0  0  0  0
   -8.2076    4.4174   -3.2494 O   0  0  0  0  0  0  0  0  0  0  0  0
   -6.0328    4.7729   -3.7103 O   0  0  0  0  0  0  0  0  0  0  0  0
    2.4173   -0.3359    0.0611 H   0  0  0  0  0  0  0  0  0  0  0  0
   -1.6025   -1.8862   -0.1231 H   0  0  0  0  0  0  0  0  0  0  0  0
   -0.8844    2.3691   -0.0465 H   0  0  0  0  0  0  0  0  0  0  0  0
    1.5471    1.9350    0.0390 H   0  0  0  0  0  0  0  0  0  0  0  0
    0.2090   -3.3702   -0.0714 H   0  0  0  0  0  0  0  0  0  0  0  0
    4.3674   -4.9806    0.9905 H   0  0  0  0  0  0  0  0  0  0  0  0
    3.5782   -7.5734    0.6325 H   0  0  0  0  0  0  0  0  0  0  0  0
    0.9461   -7.3757   -0.1846 H   0  0  0  0  0  0  0  0  0  0  0  0
   -2.7612    2.1226   -1.3443 H   0  0  0  0  0  0  0  0  0  0  0  0
   -5.5306    0.4517    0.5398 H   0  0  0  0  0  0  0  0  0  0  0  0
   -7.8634    0.8914    0.1513 H   0  0  0  0  0  0  0  0  0  0  0  0
   -4.4374    3.3694   -2.4516 H   0  0  0  0  0  0  0  0  0  0  0  0
   -9.3601    1.9546   -1.0689 H   0  0  0  0  0  0  0  0  0  0  0  0
   -8.7729    3.8463   -2.6793 H   0  0  0  0  0  0  0  0  0  0  0  0
  1  2  2  0  0  0  0
  1 28  1  0  0  0  0
  2  3  1  0  0  0  0
  2  7  1  0  0  0  0
  3  4  2  0  0  0  0
  3 29  1  0  0  0  0
  4  5  1  0  0  0  0
  4 15  1  0  0  0  0
  5  6  2  0  0  0  0
  5 30  1  0  0  0  0
  6  1  1  0  0  0  0
  6 31  1  0  0  0  0
  7  8  1  0  0  0  0
  7 32  1  0  0  0  0
  8  9  1  0  0  0  0
  8 10  2  0  0  0  0
  9 11  2  0  0  0  0
 11 12  1  0  0  0  0
 11 33  1  0  0  0  0
 12 13  2  0  0  0  0
 12 34  1  0  0  0  0
 13 14  1  0  0  0  0
 13 35  1  0  0  0  0
 14  9  1  0  0  0  0
 15 16  1  0  0  0  0
 15 17  2  0  0  0  0
 16 18  1  0  0  0  0
 16 36  1  0  0  0  0
 18 19  2  0  0  0  0
 19 20  1  0  0  0  0
 19 37  1  0  0  0  0
 20 21  2  0  0  0  0
 20 38  1  0  0  0  0
 21 22  1  0  0  0  0
 21 25  1  0  0  0  0
 22 23  2  0  0  0  0
 22 24  1  0  0  0  0
 23 18  1  0  0  0  0
 23 39  1  0  0  0  0
 24 26  1  0  0  0  0
 24 27  2  0  0  0  0
 25 40  1  0  0  0  0
 26 41  1  0  0  0  0
M  END
>  <Mol_ID>
4184

>  <Formula>
C19H14N2O6

>  <MolWeight>
366.32426

>  <Cat>
S8627

>  <Name>
OSS_128167

>  <Synonyms>
SIRT6-IN-1

>  <Target>
HBV,Sirtuin

>  <Form>
free base

>  <CAS>
887686-02-4

>  <URL>
http://selleckchem.com/products/oss-128167.html

$$$$
