Osthole.cdx
 OpenBabel08302521373D

 34 35  0  0  0  0  0  0  0  0999 V2000
    2.6819    0.9006   -0.0068 C   0  0  0  0  0  0  0  0  0  0  0  0
    2.8579   -0.5014    0.0689 C   0  0  0  0  0  0  0  0  0  0  0  0
    1.7875   -1.3918    0.0979 C   0  0  0  0  0  0  0  0  0  0  0  0
    0.4971   -0.8929    0.0671 C   0  0  0  0  0  0  0  0  0  0  0  0
    0.3132    0.4923    0.0206 C   0  0  0  0  0  0  0  0  0  0  0  0
    1.3786    1.4328   -0.0320 C   0  0  0  0  0  0  0  0  0  0  0  0
   -0.6537   -1.7827    0.0423 C   0  0  0  0  0  0  0  0  0  0  0  0
   -1.8852   -1.2736    0.0102 C   0  0  0  0  0  0  0  0  0  0  0  0
   -2.1339    0.1747    0.0080 C   0  0  0  0  0  0  0  0  0  0  0  0
   -1.0169    0.9942   -0.0030 O   0  0  0  0  0  0  0  0  0  0  0  0
    3.9100    1.4912   -0.0569 O   0  0  0  0  0  0  0  0  0  0  0  0
    4.0956    2.8783   -0.2274 C   0  0  0  0  0  0  0  0  0  0  0  0
    0.9959    2.8939   -0.1689 C   0  0  0  0  0  0  0  0  0  0  0  0
    0.8532    3.6681    1.1171 C   0  0  0  0  0  0  0  0  0  0  0  0
   -0.2340    4.3534    1.5383 C   0  0  0  0  0  0  0  0  0  0  0  0
   -0.1702    5.2495    2.7479 C   0  0  0  0  0  0  0  0  0  0  0  0
   -1.5697    4.3309    0.8443 C   0  0  0  0  0  0  0  0  0  0  0  0
   -3.2774    0.6192    0.0002 O   0  0  0  0  0  0  0  0  0  0  0  0
    3.8700   -0.9057    0.0858 H   0  0  0  0  0  0  0  0  0  0  0  0
    1.9827   -2.4608    0.1346 H   0  0  0  0  0  0  0  0  0  0  0  0
   -0.4910   -2.8557    0.0312 H   0  0  0  0  0  0  0  0  0  0  0  0
   -2.7669   -1.9045   -0.0187 H   0  0  0  0  0  0  0  0  0  0  0  0
    3.6757    3.2296   -1.1712 H   0  0  0  0  0  0  0  0  0  0  0  0
    3.7310    3.4334    0.6371 H   0  0  0  0  0  0  0  0  0  0  0  0
    5.1756    3.0540   -0.2890 H   0  0  0  0  0  0  0  0  0  0  0  0
    1.7123    3.4159   -0.8036 H   0  0  0  0  0  0  0  0  0  0  0  0
    0.0773    2.9702   -0.7658 H   0  0  0  0  0  0  0  0  0  0  0  0
    1.7641    3.7476    1.7095 H   0  0  0  0  0  0  0  0  0  0  0  0
   -0.3026    6.2928    2.4386 H   0  0  0  0  0  0  0  0  0  0  0  0
   -0.9607    4.9986    3.4616 H   0  0  0  0  0  0  0  0  0  0  0  0
    0.7889    5.1786    3.2707 H   0  0  0  0  0  0  0  0  0  0  0  0
   -1.5112    4.8092   -0.1374 H   0  0  0  0  0  0  0  0  0  0  0  0
   -1.9359    3.3080    0.7325 H   0  0  0  0  0  0  0  0  0  0  0  0
   -2.3260    4.8683    1.4273 H   0  0  0  0  0  0  0  0  0  0  0  0
  1  2  2  0  0  0  0
  1 11  1  0  0  0  0
  2  3  1  0  0  0  0
  2 19  1  0  0  0  0
  3  4  2  0  0  0  0
  3 20  1  0  0  0  0
  4  5  1  0  0  0  0
  4  7  1  0  0  0  0
  5  6  2  0  0  0  0
  6  1  1  0  0  0  0
  6 13  1  0  0  0  0
  7  8  2  0  0  0  0
  7 21  1  0  0  0  0
  8  9  1  0  0  0  0
  8 22  1  0  0  0  0
  9 10  1  0  0  0  0
  9 18  2  0  0  0  0
 10  5  1  0  0  0  0
 11 12  1  0  0  0  0
 12 23  1  0  0  0  0
 12 24  1  0  0  0  0
 12 25  1  0  0  0  0
 13 14  1  0  0  0  0
 13 26  1  0  0  0  0
 13 27  1  0  0  0  0
 14 15  2  0  0  0  0
 14 28  1  0  0  0  0
 15 16  1  0  0  0  0
 15 17  1  0  0  0  0
 16 29  1  0  0  0  0
 16 30  1  0  0  0  0
 16 31  1  0  0  0  0
 17 32  1  0  0  0  0
 17 33  1  0  0  0  0
 17 34  1  0  0  0  0
M  END
>  <Mol_ID>
714

>  <Formula>
C15H16O3

>  <MolWeight>
244.28574

>  <Cat>
S2337

>  <Name>
Osthole

>  <Synonyms>
Osthol

>  <Target>
Others

>  <Form>
free base

>  <CAS>
484-12-8

>  <URL>
http://selleckchem.com/products/Osthole(Osthol).html

$$$$
