Oxacillin sodium
 OpenBabel08302521303D

 46 49  0  0  0  0  0  0  0  0999 V2000
    0.7753   -2.5860    0.4288 S   0  0  0  0  0  0  0  0  0  0  0  0
   -1.0407    0.9061   -0.9275 O   0  0  0  0  0  0  0  0  0  0  0  0
    2.9070    1.4292    1.8048 O   0  5  0  0  0  0  0  0  0  0  0  0
    0.7650    1.8067    2.4903 O   0  0  0  0  0  0  0  0  0  0  0  0
   -2.3846   -4.0279   -0.2246 O   0  0  0  0  0  0  0  0  0  0  0  0
   -1.8036   -4.5418   -4.6977 O   0  0  0  0  0  0  0  0  0  0  0  0
   -0.2585   -0.2549    0.9831 N   0  0  0  0  0  0  0  0  0  0  0  0
   -1.9132   -2.0501   -1.2335 N   0  0  0  0  0  0  0  0  0  0  0  0
   -2.8216   -5.3719   -4.3002 N   0  0  0  0  0  0  0  0  0  0  0  0
   -0.6870   -1.6634    1.0386 C   0  0  1  0  0  0  0  0  0  0  0  0
    1.9213   -1.3098    1.1754 C   0  0  0  0  0  0  0  0  0  0  0  0
    1.1894    0.0284    0.9362 C   0  0  2  0  0  0  0  0  0  0  0  0
   -1.8085   -1.2958    0.0452 C   0  0  1  0  0  0  0  0  0  0  0  0
   -1.0635    0.0440   -0.0722 C   0  0  0  0  0  0  0  0  0  0  0  0
    3.2591   -1.4147    0.4392 C   0  0  0  0  0  0  0  0  0  0  0  0
    2.0942   -1.6875    2.6542 C   0  0  0  0  0  0  0  0  0  0  0  0
    1.6622    1.2042    1.8338 C   0  0  0  0  0  0  0  0  0  0  0  0
   -2.1666   -3.3996   -1.2566 C   0  0  0  0  0  0  0  0  0  0  0  0
   -2.2324   -4.0023   -2.5719 C   0  0  0  0  0  0  0  0  0  0  0  0
   -3.0926   -5.0625   -3.0201 C   0  0  0  0  0  0  0  0  0  0  0  0
   -1.4431   -3.7290   -3.6737 C   0  0  0  0  0  0  0  0  0  0  0  0
   -4.1617   -5.7678   -2.3043 C   0  0  0  0  0  0  0  0  0  0  0  0
   -0.3148   -2.8238   -3.9783 C   0  0  0  0  0  0  0  0  0  0  0  0
   -4.4443   -7.1120   -2.5944 C   0  0  0  0  0  0  0  0  0  0  0  0
   -4.9266   -5.1241   -1.3222 C   0  0  0  0  0  0  0  0  0  0  0  0
   -5.4391   -7.7999   -1.8934 C   0  0  0  0  0  0  0  0  0  0  0  0
   -5.9045   -5.8171   -0.6075 C   0  0  0  0  0  0  0  0  0  0  0  0
   -6.1599   -7.1546   -0.8907 C   0  0  0  0  0  0  0  0  0  0  0  0
   -1.7889   -1.5386   -2.0983 H   0  0  0  0  0  0  0  0  0  0  0  0
   -1.0286   -1.9570    2.0366 H   0  0  0  0  0  0  0  0  0  0  0  0
    1.4031    0.3636   -0.0900 H   0  0  0  0  0  0  0  0  0  0  0  0
   -2.7958   -1.1780    0.5124 H   0  0  0  0  0  0  0  0  0  0  0  0
    3.9823   -0.6888    0.8232 H   0  0  0  0  0  0  0  0  0  0  0  0
    3.7094   -2.4070    0.5641 H   0  0  0  0  0  0  0  0  0  0  0  0
    3.1482   -1.2298   -0.6354 H   0  0  0  0  0  0  0  0  0  0  0  0
    2.3970   -2.7366    2.7675 H   0  0  0  0  0  0  0  0  0  0  0  0
    2.8733   -1.0826    3.1297 H   0  0  0  0  0  0  0  0  0  0  0  0
    1.1733   -1.5456    3.2309 H   0  0  0  0  0  0  0  0  0  0  0  0
    0.5180   -3.3883   -4.4098 H   0  0  0  0  0  0  0  0  0  0  0  0
   -0.6265   -2.0684   -4.7057 H   0  0  0  0  0  0  0  0  0  0  0  0
    0.0609   -2.3121   -3.0892 H   0  0  0  0  0  0  0  0  0  0  0  0
   -3.8830   -7.6373   -3.3646 H   0  0  0  0  0  0  0  0  0  0  0  0
   -4.7676   -4.0760   -1.0829 H   0  0  0  0  0  0  0  0  0  0  0  0
   -5.6412   -8.8426   -2.1229 H   0  0  0  0  0  0  0  0  0  0  0  0
   -6.4555   -5.3055    0.1788 H   0  0  0  0  0  0  0  0  0  0  0  0
   -6.9181   -7.6917   -0.3290 H   0  0  0  0  0  0  0  0  0  0  0  0
  1 11  1  0  0  0  0
  2 14  2  0  0  0  0
  3 17  1  0  0  0  0
  4 17  2  0  0  0  0
  5 18  2  0  0  0  0
  6  9  1  0  0  0  0
  6 21  1  0  0  0  0
  7 12  1  0  0  0  0
  7 14  1  0  0  0  0
  8 18  1  0  0  0  0
  8 29  1  0  0  0  0
  9 20  2  0  0  0  0
 10  1  1  0  0  0  0
 10  7  1  0  0  0  0
 10 13  1  0  0  0  0
 10 30  1  1  0  0  0
 11 12  1  0  0  0  0
 11 15  1  0  0  0  0
 11 16  1  0  0  0  0
 12 31  1  6  0  0  0
 12 17  1  0  0  0  0
 13 14  1  0  0  0  0
 13 32  1  1  0  0  0
 13  8  1  0  0  0  0
 15 33  1  0  0  0  0
 15 34  1  0  0  0  0
 15 35  1  0  0  0  0
 16 36  1  0  0  0  0
 16 37  1  0  0  0  0
 16 38  1  0  0  0  0
 18 19  1  0  0  0  0
 19 20  1  0  0  0  0
 19 21  2  0  0  0  0
 20 22  1  0  0  0  0
 21 23  1  0  0  0  0
 22 24  2  0  0  0  0
 22 25  1  0  0  0  0
 23 39  1  0  0  0  0
 23 40  1  0  0  0  0
 23 41  1  0  0  0  0
 24 26  1  0  0  0  0
 24 42  1  0  0  0  0
 25 27  2  0  0  0  0
 25 43  1  0  0  0  0
 26 28  2  0  0  0  0
 26 44  1  0  0  0  0
 27 28  1  0  0  0  0
 27 45  1  0  0  0  0
 28 46  1  0  0  0  0
M  CHG  1   3  -1
M  END
>  <Mol_ID>
5674

>  <Formula>
C19H18N3NaO5S

>  <MolWeight>
423.41809

>  <Cat>
S4974

>  <Name>
Oxacillin sodium

>  <Synonyms>
Oxacillin sodium salt

>  <Target>
Antibiotics,Antineoplastic and Immunosuppressive Antibiotics

>  <Form>
Sodium

>  <CAS>
1173-88-2

>  <URL>
http://www.selleckchem.com/products/oxacillin-sodium.html

$$$$
