Oxalacetic acid
 OpenBabel08302520393D

 13 12  0  0  0  0  0  0  0  0999 V2000
    0.9165   -0.0280   -0.0262 C   0  0  0  0  0  0  0  0  0  0  0  0
    0.1366    1.1997    0.3069 C   0  0  0  0  0  0  0  0  0  0  0  0
    1.8748   -0.5413    1.0411 C   0  0  0  0  0  0  0  0  0  0  0  0
    0.8239   -0.6651   -1.0736 O   0  0  0  0  0  0  0  0  0  0  0  0
   -0.7243    1.7550   -0.7866 C   0  0  0  0  0  0  0  0  0  0  0  0
    2.6168   -1.5589    0.5738 O   0  0  0  0  0  0  0  0  0  0  0  0
    1.9234   -0.0705    2.1577 O   0  0  0  0  0  0  0  0  0  0  0  0
   -1.1159    0.8994   -1.7526 O   0  0  0  0  0  0  0  0  0  0  0  0
   -1.1202    2.9144   -0.7705 O   0  0  0  0  0  0  0  0  0  0  0  0
   -0.5140    0.9739    1.1584 H   0  0  0  0  0  0  0  0  0  0  0  0
    0.8534    1.9802    0.5848 H   0  0  0  0  0  0  0  0  0  0  0  0
    2.3728   -1.7667   -0.3579 H   0  0  0  0  0  0  0  0  0  0  0  0
   -0.6804    0.0169   -1.7454 H   0  0  0  0  0  0  0  0  0  0  0  0
  1  2  1  0  0  0  0
  1  3  1  0  0  0  0
  1  4  2  0  0  0  0
  2  5  1  0  0  0  0
  2 10  1  0  0  0  0
  2 11  1  0  0  0  0
  3  6  1  0  0  0  0
  3  7  2  0  0  0  0
  5  8  1  0  0  0  0
  5  9  2  0  0  0  0
  6 12  1  0  0  0  0
  8 13  1  0  0  0  0
M  END
>  <Mol_ID>
3571

>  <Formula>
C4H4O5

>  <MolWeight>
132.07156

>  <Cat>
S6112

>  <Name>
Oxalacetic acid

>  <Synonyms>
Oxaloacetic acid, 2-Oxosuccinic acid, Ketosuccinic acid

>  <Target>
Acetyl-CoA carboxylase

>  <Form>
free base

>  <CAS>
328-42-7

>  <URL>
http://www.selleck.cn/products/oxalacetic-acid.html

$$$$
