Oxcarbazepine.cdx
 OpenBabel08302522013D

 31 33  0  0  0  0  0  0  0  0999 V2000
    0.0103   -0.9809   -1.1340 N   0  0  0  0  0  0  0  0  0  0  0  0
    1.2285   -0.5273   -0.4928 C   0  0  0  0  0  0  0  0  0  0  0  0
    1.4381    0.7634    0.0476 C   0  0  0  0  0  0  0  0  0  0  0  0
    0.4914    1.9135   -0.0775 C   0  0  0  0  0  0  0  0  0  0  0  0
   -0.7186    1.7687   -0.9533 C   0  0  0  0  0  0  0  0  0  0  0  0
   -1.6133    0.7061   -0.3987 C   0  0  0  0  0  0  0  0  0  0  0  0
   -1.2129   -0.6318   -0.4824 C   0  0  0  0  0  0  0  0  0  0  0  0
   -2.8224    1.0411    0.2301 C   0  0  0  0  0  0  0  0  0  0  0  0
   -3.6371    0.0431    0.7602 C   0  0  0  0  0  0  0  0  0  0  0  0
   -3.2498   -1.2910    0.6695 C   0  0  0  0  0  0  0  0  0  0  0  0
   -2.0456   -1.6283    0.0470 C   0  0  0  0  0  0  0  0  0  0  0  0
    2.2903   -1.4519   -0.3642 C   0  0  0  0  0  0  0  0  0  0  0  0
    3.4993   -1.1276    0.2583 C   0  0  0  0  0  0  0  0  0  0  0  0
    3.6863    0.1394    0.7829 C   0  0  0  0  0  0  0  0  0  0  0  0
    2.6629    1.0763    0.6800 C   0  0  0  0  0  0  0  0  0  0  0  0
    0.7140    2.9718    0.5132 O   0  0  0  0  0  0  0  0  0  0  0  0
    0.0540   -1.8849   -2.2064 C   0  0  0  0  0  0  0  0  0  0  0  0
   -1.1451   -2.2131   -2.7732 N   0  0  0  0  0  0  0  0  0  0  0  0
    1.0607   -2.3445   -2.7383 O   0  0  0  0  0  0  0  0  0  0  0  0
   -0.4126    1.5477   -1.9824 H   0  0  0  0  0  0  0  0  0  0  0  0
   -1.2393    2.7329   -0.9966 H   0  0  0  0  0  0  0  0  0  0  0  0
   -3.1282    2.0804    0.3154 H   0  0  0  0  0  0  0  0  0  0  0  0
   -4.5695    0.3101    1.2521 H   0  0  0  0  0  0  0  0  0  0  0  0
   -3.8812   -2.0676    1.0935 H   0  0  0  0  0  0  0  0  0  0  0  0
   -1.7489   -2.6753    0.0041 H   0  0  0  0  0  0  0  0  0  0  0  0
    2.1865   -2.4746   -0.7231 H   0  0  0  0  0  0  0  0  0  0  0  0
    4.2865   -1.8741    0.3317 H   0  0  0  0  0  0  0  0  0  0  0  0
    4.6245    0.4034    1.2640 H   0  0  0  0  0  0  0  0  0  0  0  0
    2.8348    2.0747    1.0818 H   0  0  0  0  0  0  0  0  0  0  0  0
   -1.0475   -2.6961   -3.6576 H   0  0  0  0  0  0  0  0  0  0  0  0
   -1.9072   -1.5525   -2.7197 H   0  0  0  0  0  0  0  0  0  0  0  0
  1  2  1  0  0  0  0
  1 17  1  0  0  0  0
  2  3  2  0  0  0  0
  2 12  1  0  0  0  0
  3  4  1  0  0  0  0
  4  5  1  0  0  0  0
  4 16  2  0  0  0  0
  5  6  1  0  0  0  0
  5 20  1  0  0  0  0
  5 21  1  0  0  0  0
  6  7  2  0  0  0  0
  6  8  1  0  0  0  0
  7  1  1  0  0  0  0
  8  9  2  0  0  0  0
  8 22  1  0  0  0  0
  9 10  1  0  0  0  0
  9 23  1  0  0  0  0
 10 11  2  0  0  0  0
 10 24  1  0  0  0  0
 11  7  1  0  0  0  0
 11 25  1  0  0  0  0
 12 13  2  0  0  0  0
 12 26  1  0  0  0  0
 13 14  1  0  0  0  0
 13 27  1  0  0  0  0
 14 15  2  0  0  0  0
 14 28  1  0  0  0  0
 15  3  1  0  0  0  0
 15 29  1  0  0  0  0
 17 18  1  0  0  0  0
 17 19  2  0  0  0  0
 18 30  1  0  0  0  0
 18 31  1  0  0  0  0
M  END
>  <Mol_ID>
1106

>  <Formula>
C15H12N2O2

>  <MolWeight>
252.26798

>  <Cat>
S1391

>  <Name>
Oxcarbazepine

>  <Synonyms>
GP47680

>  <Target>
Sodium Channel

>  <Form>
free base

>  <CAS>
28721-07-5

>  <URL>
http://selleckchem.com/products/Oxcarbazepine.html

$$$$
