oxethazaine.cdx
 OpenBabel08302522053D

 75 76  0  0  0  0  0  0  0  0999 V2000
   -0.6236   -0.6645   -6.0265 C   0  0  0  0  0  0  0  0  0  0  0  0
    0.3743   -1.0092   -4.9465 N   0  0  0  0  0  0  0  0  0  0  0  0
   -0.7753   -1.7990   -7.0745 C   0  0  0  0  0  0  0  0  0  0  0  0
   -0.3046    0.6564   -6.8313 C   0  0  0  0  0  0  0  0  0  0  0  0
   -2.0138   -0.4929   -5.3631 C   0  0  0  0  0  0  0  0  0  0  0  0
    0.9769    0.7682   -7.6382 C   0  0  0  0  0  0  0  0  0  0  0  0
    1.0397    0.3169   -8.9657 C   0  0  0  0  0  0  0  0  0  0  0  0
    2.1728    0.5595   -9.7535 C   0  0  0  0  0  0  0  0  0  0  0  0
    3.2579    1.2446   -9.2211 C   0  0  0  0  0  0  0  0  0  0  0  0
    3.2225    1.6820   -7.9019 C   0  0  0  0  0  0  0  0  0  0  0  0
    2.0850    1.4495   -7.1171 C   0  0  0  0  0  0  0  0  0  0  0  0
    0.4892   -2.4010   -4.5110 C   0  0  0  0  0  0  0  0  0  0  0  0
    0.7532   -0.0124   -4.0169 C   0  0  0  0  0  0  0  0  0  0  0  0
    1.6141   -0.4313   -2.8077 C   0  0  0  0  0  0  0  0  0  0  0  0
    0.3772    1.1582   -4.1029 O   0  0  0  0  0  0  0  0  0  0  0  0
    2.9461   -0.9814   -3.1827 N   0  0  0  0  0  0  0  0  0  0  0  0
    3.7987    0.0069   -3.8975 C   0  0  0  0  0  0  0  0  0  0  0  0
    3.5487   -1.6088   -1.9935 C   0  0  0  0  0  0  0  0  0  0  0  0
    4.8891   -2.3529   -2.1129 C   0  0  0  0  0  0  0  0  0  0  0  0
    5.1089   -2.9784   -3.3690 O   0  0  0  0  0  0  0  0  0  0  0  0
    4.2060    1.2378   -3.0811 C   0  0  0  0  0  0  0  0  0  0  0  0
    5.5438    1.6281   -2.9293 N   0  0  0  0  0  0  0  0  0  0  0  0
    3.3186    1.9092   -2.5327 O   0  0  0  0  0  0  0  0  0  0  0  0
    6.7785    1.1744   -3.7185 C   0  0  0  0  0  0  0  0  0  0  0  0
    5.6651    2.6760   -1.8991 C   0  0  0  0  0  0  0  0  0  0  0  0
    6.5931    1.1810   -5.2610 C   0  0  0  0  0  0  0  0  0  0  0  0
    8.0853    1.9663   -3.3554 C   0  0  0  0  0  0  0  0  0  0  0  0
    7.1519   -0.2696   -3.3410 C   0  0  0  0  0  0  0  0  0  0  0  0
    8.1912    3.4474   -3.6331 C   0  0  0  0  0  0  0  0  0  0  0  0
    7.1754    4.2041   -4.2282 C   0  0  0  0  0  0  0  0  0  0  0  0
    7.3283    5.5744   -4.4375 C   0  0  0  0  0  0  0  0  0  0  0  0
    8.4881    6.2084   -4.0287 C   0  0  0  0  0  0  0  0  0  0  0  0
    9.5066    5.4755   -3.4160 C   0  0  0  0  0  0  0  0  0  0  0  0
    9.3584    4.1041   -3.2248 C   0  0  0  0  0  0  0  0  0  0  0  0
   -1.4025   -1.4801   -7.9154 H   0  0  0  0  0  0  0  0  0  0  0  0
    0.1960   -2.1156   -7.4686 H   0  0  0  0  0  0  0  0  0  0  0  0
   -1.2723   -2.6824   -6.6584 H   0  0  0  0  0  0  0  0  0  0  0  0
   -1.1268    0.8222   -7.5440 H   0  0  0  0  0  0  0  0  0  0  0  0
   -0.3741    1.5372   -6.1849 H   0  0  0  0  0  0  0  0  0  0  0  0
   -2.3728   -1.4446   -4.9532 H   0  0  0  0  0  0  0  0  0  0  0  0
   -1.9916    0.2214   -4.5339 H   0  0  0  0  0  0  0  0  0  0  0  0
   -2.7603   -0.1411   -6.0839 H   0  0  0  0  0  0  0  0  0  0  0  0
    0.1932   -0.1949   -9.4149 H   0  0  0  0  0  0  0  0  0  0  0  0
    2.1913    0.2317  -10.7904 H   0  0  0  0  0  0  0  0  0  0  0  0
    4.1261    1.4622   -9.8436 H   0  0  0  0  0  0  0  0  0  0  0  0
    4.0603    2.2328   -7.4849 H   0  0  0  0  0  0  0  0  0  0  0  0
    2.0529    1.8427   -6.1032 H   0  0  0  0  0  0  0  0  0  0  0  0
    1.5364   -2.6532   -4.3365 H   0  0  0  0  0  0  0  0  0  0  0  0
   -0.0765   -2.5339   -3.5826 H   0  0  0  0  0  0  0  0  0  0  0  0
    0.1196   -3.1173   -5.2401 H   0  0  0  0  0  0  0  0  0  0  0  0
    1.6888    0.4139   -2.1176 H   0  0  0  0  0  0  0  0  0  0  0  0
    1.0394   -1.1800   -2.2489 H   0  0  0  0  0  0  0  0  0  0  0  0
    4.6418   -0.5208   -4.3180 H   0  0  0  0  0  0  0  0  0  0  0  0
    3.2563    0.3893   -4.7676 H   0  0  0  0  0  0  0  0  0  0  0  0
    3.6288   -0.8902   -1.1693 H   0  0  0  0  0  0  0  0  0  0  0  0
    2.8407   -2.3798   -1.6641 H   0  0  0  0  0  0  0  0  0  0  0  0
    5.7033   -1.6678   -1.9017 H   0  0  0  0  0  0  0  0  0  0  0  0
    4.9583   -3.1283   -1.3446 H   0  0  0  0  0  0  0  0  0  0  0  0
    4.2605   -3.3519   -3.6615 H   0  0  0  0  0  0  0  0  0  0  0  0
    5.2406    3.6109   -2.2832 H   0  0  0  0  0  0  0  0  0  0  0  0
    5.0837    2.3876   -1.0145 H   0  0  0  0  0  0  0  0  0  0  0  0
    6.6773    2.8446   -1.5430 H   0  0  0  0  0  0  0  0  0  0  0  0
    6.5308    2.1733   -5.7047 H   0  0  0  0  0  0  0  0  0  0  0  0
    7.4446    0.6845   -5.7444 H   0  0  0  0  0  0  0  0  0  0  0  0
    5.6989    0.6546   -5.5938 H   0  0  0  0  0  0  0  0  0  0  0  0
    8.2931    1.8108   -2.2856 H   0  0  0  0  0  0  0  0  0  0  0  0
    8.9326    1.4965   -3.8770 H   0  0  0  0  0  0  0  0  0  0  0  0
    7.2312   -0.3777   -2.2556 H   0  0  0  0  0  0  0  0  0  0  0  0
    6.4427   -0.9828   -3.7437 H   0  0  0  0  0  0  0  0  0  0  0  0
    8.1147   -0.5720   -3.7693 H   0  0  0  0  0  0  0  0  0  0  0  0
    6.2242    3.7710   -4.5146 H   0  0  0  0  0  0  0  0  0  0  0  0
    6.5209    6.1332   -4.9097 H   0  0  0  0  0  0  0  0  0  0  0  0
    8.5980    7.2801   -4.1755 H   0  0  0  0  0  0  0  0  0  0  0  0
   10.4104    5.9752   -3.0874 H   0  0  0  0  0  0  0  0  0  0  0  0
   10.1573    3.5493   -2.7323 H   0  0  0  0  0  0  0  0  0  0  0  0
  1  2  1  0  0  0  0
  1  3  1  0  0  0  0
  1  4  1  0  0  0  0
  1  5  1  0  0  0  0
  2 12  1  0  0  0  0
  2 13  1  0  0  0  0
  3 35  1  0  0  0  0
  3 36  1  0  0  0  0
  3 37  1  0  0  0  0
  4  6  1  0  0  0  0
  4 38  1  0  0  0  0
  4 39  1  0  0  0  0
  5 40  1  0  0  0  0
  5 41  1  0  0  0  0
  5 42  1  0  0  0  0
  6  7  2  0  0  0  0
  7  8  1  0  0  0  0
  7 43  1  0  0  0  0
  8  9  2  0  0  0  0
  8 44  1  0  0  0  0
  9 10  1  0  0  0  0
  9 45  1  0  0  0  0
 10 11  2  0  0  0  0
 10 46  1  0  0  0  0
 11  6  1  0  0  0  0
 11 47  1  0  0  0  0
 12 48  1  0  0  0  0
 12 49  1  0  0  0  0
 12 50  1  0  0  0  0
 13 14  1  0  0  0  0
 13 15  2  0  0  0  0
 14 16  1  0  0  0  0
 14 51  1  0  0  0  0
 14 52  1  0  0  0  0
 16 17  1  0  0  0  0
 16 18  1  0  0  0  0
 17 21  1  0  0  0  0
 17 53  1  0  0  0  0
 17 54  1  0  0  0  0
 18 19  1  0  0  0  0
 18 55  1  0  0  0  0
 18 56  1  0  0  0  0
 19 20  1  0  0  0  0
 19 57  1  0  0  0  0
 19 58  1  0  0  0  0
 20 59  1  0  0  0  0
 21 22  1  0  0  0  0
 21 23  2  0  0  0  0
 22 24  1  0  0  0  0
 22 25  1  0  0  0  0
 24 26  1  0  0  0  0
 24 27  1  0  0  0  0
 24 28  1  0  0  0  0
 25 60  1  0  0  0  0
 25 61  1  0  0  0  0
 25 62  1  0  0  0  0
 26 63  1  0  0  0  0
 26 64  1  0  0  0  0
 26 65  1  0  0  0  0
 27 29  1  0  0  0  0
 27 66  1  0  0  0  0
 27 67  1  0  0  0  0
 28 68  1  0  0  0  0
 28 69  1  0  0  0  0
 28 70  1  0  0  0  0
 29 30  2  0  0  0  0
 30 31  1  0  0  0  0
 30 71  1  0  0  0  0
 31 32  2  0  0  0  0
 31 72  1  0  0  0  0
 32 33  1  0  0  0  0
 32 73  1  0  0  0  0
 33 34  2  0  0  0  0
 33 74  1  0  0  0  0
 34 29  1  0  0  0  0
 34 75  1  0  0  0  0
M  END
>  <Mol_ID>
1380

>  <Formula>
C28H41N3O3

>  <MolWeight>
467.64344

>  <Cat>
S4343

>  <Name>
Oxethazaine

>  <Synonyms>
Oxethacaine

>  <Target>
Others

>  <Form>
free base

>  <CAS>
126-27-2

>  <URL>
http://selleckchem.com/products/oxethazaine.html

$$$$
