Oxybutynin chloride.cdx
 OpenBabel08302521353D

 57 58  0  0  0  0  0  0  0  0999 V2000
   -1.0373    2.0166    0.1987 C   0  0  0  0  0  0  0  0  0  0  0  0
   -2.0469    1.1364    0.5845 C   0  0  0  0  0  0  0  0  0  0  0  0
   -1.7719   -0.2205    0.7058 C   0  0  0  0  0  0  0  0  0  0  0  0
   -0.4931   -0.6956    0.4312 C   0  0  0  0  0  0  0  0  0  0  0  0
    0.5297    0.1938    0.0847 C   0  0  0  0  0  0  0  0  0  0  0  0
    0.2840    1.5758   -0.0037 C   0  0  0  0  0  0  0  0  0  0  0  0
    1.4082    2.5963   -0.2874 C   0  0  3  0  0  0  0  0  0  0  0  0
    1.1495    3.3454   -1.6546 C   0  0  0  0  0  0  0  0  0  0  0  0
    1.6029    3.5806    0.9576 C   0  0  0  0  0  0  0  0  0  0  0  0
    2.6389    1.8524   -0.4500 O   0  0  0  0  0  0  0  0  0  0  0  0
    1.1655    2.3585   -2.8611 C   0  0  0  0  0  0  0  0  0  0  0  0
    0.9631    3.0505   -4.2053 C   0  0  0  0  0  0  0  0  0  0  0  0
    2.0068    4.1354   -4.4284 C   0  0  0  0  0  0  0  0  0  0  0  0
    1.9642    5.1540   -3.2887 C   0  0  0  0  0  0  0  0  0  0  0  0
    2.1561    4.4898   -1.9236 C   0  0  0  0  0  0  0  0  0  0  0  0
    0.4339    3.8920    1.5934 O   0  0  0  0  0  0  0  0  0  0  0  0
    2.7057    4.0114    1.3025 O   0  0  0  0  0  0  0  0  0  0  0  0
    0.4485    4.6658    2.8222 C   0  0  0  0  0  0  0  0  0  0  0  0
    0.3713    6.1398    2.4593 C   0  0  0  0  0  0  0  0  0  0  0  0
    0.3051    7.4042    2.1481 C   0  0  0  0  0  0  0  0  0  0  0  0
    0.2279    8.8783    1.7852 C   0  0  0  0  0  0  0  0  0  0  0  0
   -1.0483    9.5217    1.4629 N   0  0  0  0  0  0  0  0  0  0  0  0
   -1.9376    9.6400    2.6410 C   0  0  0  0  0  0  0  0  0  0  0  0
   -2.5604    8.3406    3.1264 C   0  0  0  0  0  0  0  0  0  0  0  0
   -0.7532   10.9212    1.0224 C   0  0  0  0  0  0  0  0  0  0  0  0
    0.1393   11.0663   -0.2144 C   0  0  0  0  0  0  0  0  0  0  0  0
   -1.2900    3.0714    0.1037 H   0  0  0  0  0  0  0  0  0  0  0  0
   -3.0390    1.5205    0.8034 H   0  0  0  0  0  0  0  0  0  0  0  0
   -2.5563   -0.9054    1.0156 H   0  0  0  0  0  0  0  0  0  0  0  0
   -0.2838   -1.7611    0.4996 H   0  0  0  0  0  0  0  0  0  0  0  0
    1.5211   -0.2097   -0.1129 H   0  0  0  0  0  0  0  0  0  0  0  0
    0.1543    3.8080   -1.6190 H   0  0  0  0  0  0  0  0  0  0  0  0
    3.3503    2.4956   -0.6110 H   0  0  0  0  0  0  0  0  0  0  0  0
    2.1212    1.8206   -2.8986 H   0  0  0  0  0  0  0  0  0  0  0  0
    0.3819    1.6019   -2.7473 H   0  0  0  0  0  0  0  0  0  0  0  0
    1.0209    2.3144   -5.0176 H   0  0  0  0  0  0  0  0  0  0  0  0
   -0.0405    3.4917   -4.2464 H   0  0  0  0  0  0  0  0  0  0  0  0
    3.0050    3.6863   -4.4856 H   0  0  0  0  0  0  0  0  0  0  0  0
    1.8271    4.6385   -5.3832 H   0  0  0  0  0  0  0  0  0  0  0  0
    2.7467    5.9040   -3.4455 H   0  0  0  0  0  0  0  0  0  0  0  0
    1.0056    5.6808   -3.3111 H   0  0  0  0  0  0  0  0  0  0  0  0
    2.0477    5.2627   -1.1536 H   0  0  0  0  0  0  0  0  0  0  0  0
    3.1855    4.1205   -1.8641 H   0  0  0  0  0  0  0  0  0  0  0  0
   -0.4309    4.3747    3.4037 H   0  0  0  0  0  0  0  0  0  0  0  0
    1.3485    4.4488    3.4062 H   0  0  0  0  0  0  0  0  0  0  0  0
    0.7143    9.4189    2.6105 H   0  0  0  0  0  0  0  0  0  0  0  0
    0.9176    8.9614    0.9369 H   0  0  0  0  0  0  0  0  0  0  0  0
   -1.4240   10.1328    3.4782 H   0  0  0  0  0  0  0  0  0  0  0  0
   -2.7796   10.2915    2.3711 H   0  0  0  0  0  0  0  0  0  0  0  0
   -1.8427    7.7236    3.6699 H   0  0  0  0  0  0  0  0  0  0  0  0
   -3.3764    8.5660    3.8226 H   0  0  0  0  0  0  0  0  0  0  0  0
   -2.9794    7.7642    2.2961 H   0  0  0  0  0  0  0  0  0  0  0  0
   -1.6987   11.4291    0.7976 H   0  0  0  0  0  0  0  0  0  0  0  0
   -0.2875   11.4854    1.8440 H   0  0  0  0  0  0  0  0  0  0  0  0
    0.2551   10.1327   -0.7718 H   0  0  0  0  0  0  0  0  0  0  0  0
   -0.2850   11.8042   -0.9026 H   0  0  0  0  0  0  0  0  0  0  0  0
    1.1361   11.4197    0.0742 H   0  0  0  0  0  0  0  0  0  0  0  0
  1  2  2  0  0  0  0
  1 27  1  0  0  0  0
  2  3  1  0  0  0  0
  2 28  1  0  0  0  0
  3  4  2  0  0  0  0
  3 29  1  0  0  0  0
  4  5  1  0  0  0  0
  4 30  1  0  0  0  0
  5  6  2  0  0  0  0
  5 31  1  0  0  0  0
  6  1  1  0  0  0  0
  6  7  1  0  0  0  0
  7  8  1  0  0  0  0
  7  9  1  0  0  0  0
  7 10  1  0  0  0  0
  8 11  1  0  0  0  0
  8 32  1  0  0  0  0
  9 16  1  0  0  0  0
  9 17  2  0  0  0  0
 10 33  1  0  0  0  0
 11 12  1  0  0  0  0
 11 34  1  0  0  0  0
 11 35  1  0  0  0  0
 12 13  1  0  0  0  0
 12 36  1  0  0  0  0
 12 37  1  0  0  0  0
 13 14  1  0  0  0  0
 13 38  1  0  0  0  0
 13 39  1  0  0  0  0
 14 15  1  0  0  0  0
 14 40  1  0  0  0  0
 14 41  1  0  0  0  0
 15  8  1  0  0  0  0
 15 42  1  0  0  0  0
 15 43  1  0  0  0  0
 16 18  1  0  0  0  0
 18 19  1  0  0  0  0
 18 44  1  0  0  0  0
 18 45  1  0  0  0  0
 19 20  3  0  0  0  0
 20 21  1  0  0  0  0
 21 22  1  0  0  0  0
 21 46  1  0  0  0  0
 21 47  1  0  0  0  0
 22 23  1  0  0  0  0
 22 25  1  0  0  0  0
 23 24  1  0  0  0  0
 23 48  1  0  0  0  0
 23 49  1  0  0  0  0
 24 50  1  0  0  0  0
 24 51  1  0  0  0  0
 24 52  1  0  0  0  0
 25 26  1  0  0  0  0
 25 53  1  0  0  0  0
 25 54  1  0  0  0  0
 26 55  1  0  0  0  0
 26 56  1  0  0  0  0
 26 57  1  0  0  0  0
M  END
>  <Mol_ID>
632

>  <Formula>
C22H32ClNO3

>  <MolWeight>
393.94738

>  <Cat>
S3117

>  <Name>
Oxybutynin hydrochloride

>  <Synonyms>
MJ4309-1

>  <Target>
AChR

>  <Form>
hydrochloride

>  <CAS>
1508-65-2

>  <URL>
https://www.selleckchem.com/products/oxybutynin-hydrochloride.html

$$$$
