Ozenoxacin
 OpenBabel08302521223D

 48 51  0  0  0  0  0  0  0  0999 V2000
    0.9825   -0.0456   -0.0387 O   0  0  0  0  0  0  0  0  0  0  0  0
    0.8030    2.4947   -0.1265 O   0  0  0  0  0  0  0  0  0  0  0  0
    2.7073    3.6944   -0.2066 O   0  0  0  0  0  0  0  0  0  0  0  0
    5.0509    0.2065    0.0079 N   0  0  0  0  0  0  0  0  0  0  0  0
    6.5473   -6.5611    1.3378 N   0  0  0  0  0  0  0  0  0  0  0  0
    6.4830   -8.8039    1.0975 N   0  0  0  0  0  0  0  0  0  0  0  0
    6.4894    0.4720   -0.2379 C   0  0  0  0  0  0  0  0  0  0  0  0
    7.4608    0.5365    0.9231 C   0  0  0  0  0  0  0  0  0  0  0  0
    7.2369    1.7489    0.0888 C   0  0  0  0  0  0  0  0  0  0  0  0
    4.4750   -1.1255    0.0015 C   0  0  0  0  0  0  0  0  0  0  0  0
    4.2070    1.3144   -0.0731 C   0  0  0  0  0  0  0  0  0  0  0  0
    3.0556   -1.2048   -0.0581 C   0  0  0  0  0  0  0  0  0  0  0  0
    5.2087   -2.3660    0.0588 C   0  0  0  0  0  0  0  0  0  0  0  0
    2.8740    1.3199   -0.0849 C   0  0  0  0  0  0  0  0  0  0  0  0
    2.2110    0.0112   -0.0549 C   0  0  0  0  0  0  0  0  0  0  0  0
    4.5102   -3.6229    0.0257 C   0  0  0  0  0  0  0  0  0  0  0  0
    2.3854   -2.4238   -0.1184 C   0  0  0  0  0  0  0  0  0  0  0  0
    6.7108   -2.3805    0.1982 C   0  0  0  0  0  0  0  0  0  0  0  0
    3.1030   -3.6047   -0.0819 C   0  0  0  0  0  0  0  0  0  0  0  0
    5.1335   -4.9728    0.1421 C   0  0  0  0  0  0  0  0  0  0  0  0
    2.1488    2.6098   -0.1485 C   0  0  0  0  0  0  0  0  0  0  0  0
    4.7052   -6.0484   -0.6461 C   0  0  0  0  0  0  0  0  0  0  0  0
    6.0475   -5.3174    1.1291 C   0  0  0  0  0  0  0  0  0  0  0  0
    5.1021   -7.3749   -0.3785 C   0  0  0  0  0  0  0  0  0  0  0  0
    6.0591   -7.5881    0.6129 C   0  0  0  0  0  0  0  0  0  0  0  0
    4.3776   -8.4743   -1.0964 C   0  0  0  0  0  0  0  0  0  0  0  0
    6.8901   -9.9183    0.2753 C   0  0  0  0  0  0  0  0  0  0  0  0
    0.4756    1.5622   -0.0766 H   0  0  0  0  0  0  0  0  0  0  0  0
    7.1867   -8.5655    1.7967 H   0  0  0  0  0  0  0  0  0  0  0  0
    6.8022    0.0573   -1.1918 H   0  0  0  0  0  0  0  0  0  0  0  0
    7.0544    0.5382    1.9289 H   0  0  0  0  0  0  0  0  0  0  0  0
    8.4075    0.0172    0.8277 H   0  0  0  0  0  0  0  0  0  0  0  0
    8.0361    2.0427   -0.5846 H   0  0  0  0  0  0  0  0  0  0  0  0
    6.7439    2.5857    0.5655 H   0  0  0  0  0  0  0  0  0  0  0  0
    4.7303    2.2616   -0.1294 H   0  0  0  0  0  0  0  0  0  0  0  0
    1.2980   -2.4649   -0.1840 H   0  0  0  0  0  0  0  0  0  0  0  0
    7.1912   -1.8696   -0.6345 H   0  0  0  0  0  0  0  0  0  0  0  0
    6.9885   -1.9560    1.1657 H   0  0  0  0  0  0  0  0  0  0  0  0
    7.1651   -3.3694    0.1587 H   0  0  0  0  0  0  0  0  0  0  0  0
    2.5362   -4.5360   -0.1019 H   0  0  0  0  0  0  0  0  0  0  0  0
    3.9718   -5.8737   -1.4331 H   0  0  0  0  0  0  0  0  0  0  0  0
    6.4105   -4.5852    1.8455 H   0  0  0  0  0  0  0  0  0  0  0  0
    5.0138   -8.9365   -1.8551 H   0  0  0  0  0  0  0  0  0  0  0  0
    4.0219   -9.2250   -0.3824 H   0  0  0  0  0  0  0  0  0  0  0  0
    3.4877   -8.0947   -1.6117 H   0  0  0  0  0  0  0  0  0  0  0  0
    7.9427   -9.8331   -0.0108 H   0  0  0  0  0  0  0  0  0  0  0  0
    6.7810  -10.8328    0.8689 H   0  0  0  0  0  0  0  0  0  0  0  0
    6.2967  -10.0612   -0.6256 H   0  0  0  0  0  0  0  0  0  0  0  0
  1 15  2  0  0  0  0
  2 21  1  0  0  0  0
  2 28  1  0  0  0  0
  3 21  2  0  0  0  0
  4  7  1  0  0  0  0
  4 10  1  0  0  0  0
  4 11  1  0  0  0  0
  5 23  2  0  0  0  0
  5 25  1  0  0  0  0
  6 25  1  0  0  0  0
  6 27  1  0  0  0  0
  6 29  1  0  0  0  0
  7  8  1  0  0  0  0
  7  9  1  0  0  0  0
  7 30  1  0  0  0  0
  8  9  1  0  0  0  0
  8 31  1  0  0  0  0
  8 32  1  0  0  0  0
  9 33  1  0  0  0  0
  9 34  1  0  0  0  0
 10 12  2  0  0  0  0
 10 13  1  0  0  0  0
 11 14  2  0  0  0  0
 11 35  1  0  0  0  0
 12 15  1  0  0  0  0
 12 17  1  0  0  0  0
 13 16  2  0  0  0  0
 13 18  1  0  0  0  0
 14 15  1  0  0  0  0
 14 21  1  0  0  0  0
 16 19  1  0  0  0  0
 16 20  1  0  0  0  0
 17 19  2  0  0  0  0
 17 36  1  0  0  0  0
 18 37  1  0  0  0  0
 18 38  1  0  0  0  0
 18 39  1  0  0  0  0
 19 40  1  0  0  0  0
 20 22  2  0  0  0  0
 20 23  1  0  0  0  0
 22 24  1  0  0  0  0
 22 41  1  0  0  0  0
 23 42  1  0  0  0  0
 24 25  2  0  0  0  0
 24 26  1  0  0  0  0
 26 43  1  0  0  0  0
 26 44  1  0  0  0  0
 26 45  1  0  0  0  0
 27 46  1  0  0  0  0
 27 47  1  0  0  0  0
 27 48  1  0  0  0  0
M  END
>  <Mol_ID>
4731

>  <Formula>
C21H21N3O3

>  <MolWeight>
363.40974

>  <Cat>
S6582

>  <Name>
Ozenoxacin

>  <Synonyms>
T-3912

>  <Target>
Antibiotics

>  <Form>
Free Base

>  <CAS>
245765-41-7

>  <URL>
http://www.selleck.cn/products/ozenoxacin.html

$$$$
