p-Hydroxy-cinnamic Acid
 OpenBabel08302521223D

 20 20  0  0  0  0  0  0  0  0999 V2000
    0.9333    0.0416   -0.3228 C   0  0  0  0  0  0  0  0  0  0  0  0
    0.2774    1.3588   -0.2144 C   0  0  0  0  0  0  0  0  0  0  0  0
   -1.0279    1.4310    0.0931 C   0  0  0  0  0  0  0  0  0  0  0  0
   -1.7697    2.6951    0.2154 C   0  0  0  0  0  0  0  0  0  0  0  0
   -1.4347    3.8343   -0.5331 C   0  0  0  0  0  0  0  0  0  0  0  0
   -2.1678    5.0165   -0.4069 C   0  0  0  0  0  0  0  0  0  0  0  0
   -3.2530    5.0573    0.4598 C   0  0  0  0  0  0  0  0  0  0  0  0
   -3.6167    3.9359    1.1946 C   0  0  0  0  0  0  0  0  0  0  0  0
   -2.8801    2.7546    1.0685 C   0  0  0  0  0  0  0  0  0  0  0  0
    0.3774   -1.0285   -0.1448 O   0  0  0  0  0  0  0  0  0  0  0  0
    2.2355    0.1529   -0.6522 O   0  0  0  0  0  0  0  0  0  0  0  0
   -3.9964    6.1888    0.6108 O   0  0  0  0  0  0  0  0  0  0  0  0
    0.8720    2.2445   -0.3817 H   0  0  0  0  0  0  0  0  0  0  0  0
   -1.5963    0.5211    0.2838 H   0  0  0  0  0  0  0  0  0  0  0  0
   -0.6070    3.8165   -1.2360 H   0  0  0  0  0  0  0  0  0  0  0  0
   -1.8807    5.8831   -0.9935 H   0  0  0  0  0  0  0  0  0  0  0  0
   -4.4723    3.9788    1.8627 H   0  0  0  0  0  0  0  0  0  0  0  0
   -3.1820    1.8852    1.6497 H   0  0  0  0  0  0  0  0  0  0  0  0
    2.5677    1.0616   -0.7617 H   0  0  0  0  0  0  0  0  0  0  0  0
   -3.6394    6.8772    0.0271 H   0  0  0  0  0  0  0  0  0  0  0  0
  1  2  1  0  0  0  0
  1 10  2  0  0  0  0
  1 11  1  0  0  0  0
  2  3  2  0  0  0  0
  2 13  1  0  0  0  0
  3  4  1  0  0  0  0
  3 14  1  0  0  0  0
  4  5  2  0  0  0  0
  4  9  1  0  0  0  0
  5  6  1  0  0  0  0
  5 15  1  0  0  0  0
  6  7  2  0  0  0  0
  6 16  1  0  0  0  0
  7  8  1  0  0  0  0
  7 12  1  0  0  0  0
  8  9  2  0  0  0  0
  8 17  1  0  0  0  0
  9 18  1  0  0  0  0
 11 19  1  0  0  0  0
 12 20  1  0  0  0  0
M  END
>  <Mol_ID>
4679

>  <Formula>
C9H8O3

>  <MolWeight>
164.15802

>  <Cat>
S9564

>  <Name>
p-Hydroxy-cinnamic Acid

>  <Synonyms>
N/A

>  <Target>
Anti-infection

>  <Form>
Free Base

>  <CAS>
7400-08-0

>  <URL>
http://www.selleck.cn/products/hydroxy-cinnamic-acid.html

$$$$
