P22077.cdx
 OpenBabel08302519553D

 27 28  0  0  0  0  0  0  0  0999 V2000
    1.4344    0.7373   -0.0529 C   0  0  0  0  0  0  0  0  0  0  0  0
    0.1299    1.1765    0.0549 C   0  0  0  0  0  0  0  0  0  0  0  0
   -0.9454   -0.1395    0.1328 S   0  0  0  0  0  0  0  0  0  0  0  0
    0.3102   -1.3092    0.0035 C   0  0  0  0  0  0  0  0  0  0  0  0
    1.5538   -0.6980   -0.1025 C   0  0  0  0  0  0  0  0  0  0  0  0
   -0.3211    2.5645    0.0901 C   0  0  0  0  0  0  0  0  0  0  0  0
    0.4751    3.5044    0.0560 O   0  0  0  0  0  0  0  0  0  0  0  0
   -1.8046    2.8483    0.1568 C   0  0  0  0  0  0  0  0  0  0  0  0
    2.8304   -1.3655   -0.2620 N   0  3  0  0  0  0  0  0  0  0  0  0
    3.8162   -0.6318   -0.4160 O   0  0  0  0  0  0  0  0  0  0  0  0
    2.8660   -2.5988   -0.2244 O   0  5  0  0  0  0  0  0  0  0  0  0
   -0.1484   -3.0164   -0.0657 S   0  0  0  0  0  0  0  0  0  0  0  0
   -0.1657   -3.3719    1.6841 C   0  0  0  0  0  0  0  0  0  0  0  0
    0.9681   -3.9434    2.2758 C   0  0  0  0  0  0  0  0  0  0  0  0
    0.9744   -4.2485    3.6390 C   0  0  0  0  0  0  0  0  0  0  0  0
   -0.1570   -3.9954    4.4069 C   0  0  0  0  0  0  0  0  0  0  0  0
   -1.3011   -3.4553    3.8375 C   0  0  0  0  0  0  0  0  0  0  0  0
   -1.3003   -3.1523    2.4783 C   0  0  0  0  0  0  0  0  0  0  0  0
   -2.4214   -2.6463    1.9420 F   0  0  0  0  0  0  0  0  0  0  0  0
   -0.1427   -4.2842    5.7142 F   0  0  0  0  0  0  0  0  0  0  0  0
    2.2750    1.4236   -0.1185 H   0  0  0  0  0  0  0  0  0  0  0  0
   -2.3082    2.4407   -0.7244 H   0  0  0  0  0  0  0  0  0  0  0  0
   -2.2300    2.4283    1.0722 H   0  0  0  0  0  0  0  0  0  0  0  0
   -1.9694    3.9299    0.1711 H   0  0  0  0  0  0  0  0  0  0  0  0
    1.8511   -4.1660    1.6798 H   0  0  0  0  0  0  0  0  0  0  0  0
    1.8528   -4.6887    4.1019 H   0  0  0  0  0  0  0  0  0  0  0  0
   -2.1833   -3.2788    4.4420 H   0  0  0  0  0  0  0  0  0  0  0  0
  1  2  2  0  0  0  0
  1 21  1  0  0  0  0
  2  3  1  0  0  0  0
  2  6  1  0  0  0  0
  3  4  1  0  0  0  0
  4  5  2  0  0  0  0
  4 12  1  0  0  0  0
  5  1  1  0  0  0  0
  5  9  1  0  0  0  0
  6  7  2  0  0  0  0
  6  8  1  0  0  0  0
  8 22  1  0  0  0  0
  8 23  1  0  0  0  0
  8 24  1  0  0  0  0
  9 10  2  0  0  0  0
  9 11  1  0  0  0  0
 12 13  1  0  0  0  0
 13 14  2  0  0  0  0
 14 15  1  0  0  0  0
 14 25  1  0  0  0  0
 15 16  2  0  0  0  0
 15 26  1  0  0  0  0
 16 17  1  0  0  0  0
 16 20  1  0  0  0  0
 17 18  2  0  0  0  0
 17 27  1  0  0  0  0
 18 13  1  0  0  0  0
 18 19  1  0  0  0  0
M  CHG  2   9   1  11  -1
M  END
>  <Mol_ID>
2155

>  <Formula>
C12H7F2NO3S2

>  <MolWeight>
315.3156864

>  <Cat>
S7133

>  <Name>
P22077

>  <Synonyms>
N/A

>  <Target>
DUB

>  <Form>
free base

>  <CAS>
1247819-59-5

>  <URL>
http://selleckchem.com/products/p22077.html

$$$$
