p276-00.cdx
 OpenBabel08302520403D

 48 51  0  0  0  0  0  0  0  0999 V2000
   -2.6761   -7.8666   -1.4776 C   0  0  0  0  0  0  0  0  0  0  0  0
   -3.1638   -6.5907   -1.7532 C   0  0  0  0  0  0  0  0  0  0  0  0
   -4.2298   -6.0733   -1.0147 C   0  0  0  0  0  0  0  0  0  0  0  0
   -4.8172   -6.8271    0.0097 C   0  0  0  0  0  0  0  0  0  0  0  0
   -4.3306   -8.1210    0.2577 C   0  0  0  0  0  0  0  0  0  0  0  0
   -3.2662   -8.6369   -0.4804 C   0  0  0  0  0  0  0  0  0  0  0  0
   -5.8480   -6.2362    0.8783 C   0  0  0  0  0  0  0  0  0  0  0  0
   -6.8547   -6.9725    1.3701 C   0  0  0  0  0  0  0  0  0  0  0  0
   -7.7005   -6.3569    2.3908 C   0  0  0  0  0  0  0  0  0  0  0  0
   -7.6981   -4.8920    2.4341 C   0  0  0  0  0  0  0  0  0  0  0  0
   -6.6681   -4.2022    1.7813 C   0  0  0  0  0  0  0  0  0  0  0  0
   -5.6358   -4.8992    1.1916 O   0  0  0  0  0  0  0  0  0  0  0  0
   -8.7519   -4.2090    3.0298 C   0  0  0  0  0  0  0  0  0  0  0  0
   -8.8440   -2.8372    2.8619 C   0  0  0  0  0  0  0  0  0  0  0  0
   -7.8319   -2.1548    2.1848 C   0  0  0  0  0  0  0  0  0  0  0  0
   -6.6793   -2.7943    1.6932 C   0  0  0  0  0  0  0  0  0  0  0  0
   -8.0461   -0.8294    1.9670 O   0  0  0  0  0  0  0  0  0  0  0  0
   -9.7388   -4.8288    3.7415 O   0  0  0  0  0  0  0  0  0  0  0  0
   -8.3994   -7.0218    3.1443 O   0  0  0  0  0  0  0  0  0  0  0  0
   -5.5031   -2.0376    1.0806 C   0  0  1  0  0  0  0  0  0  0  0  0
   -5.8157   -1.1822   -0.1750 C   0  0  1  0  0  0  0  0  0  0  0  0
   -4.8836   -0.0398   -0.0494 N   0  0  0  0  0  0  0  0  0  0  0  0
   -4.9082    0.3105    1.3700 C   0  0  0  0  0  0  0  0  0  0  0  0
   -4.8322   -1.0457    2.0562 C   0  0  0  0  0  0  0  0  0  0  0  0
   -5.6261   -1.9782   -1.4771 C   0  0  0  0  0  0  0  0  0  0  0  0
   -6.4697   -3.1260   -1.5214 O   0  0  0  0  0  0  0  0  0  0  0  0
   -5.2388    1.0971   -0.8906 C   0  0  0  0  0  0  0  0  0  0  0  0
   -1.8295   -8.2575   -2.0345 H   0  0  0  0  0  0  0  0  0  0  0  0
   -2.7019   -5.9875   -2.5298 H   0  0  0  0  0  0  0  0  0  0  0  0
   -4.5885   -5.0696   -1.2369 H   0  0  0  0  0  0  0  0  0  0  0  0
   -4.7502   -8.7318    1.0540 H   0  0  0  0  0  0  0  0  0  0  0  0
   -2.8871   -9.6306   -0.2595 H   0  0  0  0  0  0  0  0  0  0  0  0
   -7.0484   -8.0056    1.1158 H   0  0  0  0  0  0  0  0  0  0  0  0
   -9.7093   -2.3049    3.2425 H   0  0  0  0  0  0  0  0  0  0  0  0
   -7.5270   -0.3471    2.6275 H   0  0  0  0  0  0  0  0  0  0  0  0
   -9.4972   -5.7790    3.8375 H   0  0  0  0  0  0  0  0  0  0  0  0
   -4.7171   -2.7586    0.8187 H   0  0  0  0  0  0  0  0  0  0  0  0
   -6.8523   -0.8277   -0.1435 H   0  0  0  0  0  0  0  0  0  0  0  0
   -4.0673    0.9527    1.6521 H   0  0  0  0  0  0  0  0  0  0  0  0
   -5.8380    0.8237    1.6449 H   0  0  0  0  0  0  0  0  0  0  0  0
   -5.2746   -1.0221    3.0569 H   0  0  0  0  0  0  0  0  0  0  0  0
   -3.7763   -1.3244    2.1786 H   0  0  0  0  0  0  0  0  0  0  0  0
   -5.8641   -1.3600   -2.3484 H   0  0  0  0  0  0  0  0  0  0  0  0
   -4.5903   -2.3182   -1.5843 H   0  0  0  0  0  0  0  0  0  0  0  0
   -7.3666   -2.8407   -1.2725 H   0  0  0  0  0  0  0  0  0  0  0  0
   -6.2649    1.4407   -0.7189 H   0  0  0  0  0  0  0  0  0  0  0  0
   -4.5614    1.9383   -0.7020 H   0  0  0  0  0  0  0  0  0  0  0  0
   -5.1312    0.8438   -1.9500 H   0  0  0  0  0  0  0  0  0  0  0  0
  1  2  2  0  0  0  0
  1 28  1  0  0  0  0
  2  3  1  0  0  0  0
  2 29  1  0  0  0  0
  3  4  2  0  0  0  0
  3 30  1  0  0  0  0
  4  5  1  0  0  0  0
  4  7  1  0  0  0  0
  5  6  2  0  0  0  0
  5 31  1  0  0  0  0
  6  1  1  0  0  0  0
  6 32  1  0  0  0  0
  7  8  2  0  0  0  0
  8  9  1  0  0  0  0
  8 33  1  0  0  0  0
  9 10  1  0  0  0  0
  9 19  2  0  0  0  0
 10 11  2  0  0  0  0
 10 13  1  0  0  0  0
 11 12  1  0  0  0  0
 12  7  1  0  0  0  0
 13 14  2  0  0  0  0
 13 18  1  0  0  0  0
 14 15  1  0  0  0  0
 14 34  1  0  0  0  0
 15 16  2  0  0  0  0
 15 17  1  0  0  0  0
 16 11  1  0  0  0  0
 17 35  1  0  0  0  0
 18 36  1  0  0  0  0
 20 21  1  0  0  0  0
 20 37  1  6  0  0  0
 20 16  1  0  0  0  0
 21 22  1  0  0  0  0
 21 38  1  1  0  0  0
 21 25  1  0  0  0  0
 22 23  1  0  0  0  0
 22 27  1  0  0  0  0
 23 24  1  0  0  0  0
 23 39  1  0  0  0  0
 23 40  1  0  0  0  0
 24 20  1  0  0  0  0
 24 41  1  0  0  0  0
 24 42  1  0  0  0  0
 25 26  1  0  0  0  0
 25 43  1  0  0  0  0
 25 44  1  0  0  0  0
 26 45  1  0  0  0  0
 27 46  1  0  0  0  0
 27 47  1  0  0  0  0
 27 48  1  0  0  0  0
M  END
>  <Mol_ID>
3864

>  <Formula>
C21H21Cl2NO5

>  <MolWeight>
438.30114

>  <Cat>
S8058

>  <Name>
Riviciclib hydrochloride (P276-00)

>  <Synonyms>
N/A

>  <Target>
Apoptosis related,CDK

>  <Form>
hydrochloride

>  <CAS>
920113-03-7

>  <URL>
http://selleckchem.com/products/p276-00.html

$$$$
