P505-15.cdx
 OpenBabel08302520403D

 51 54  0  0  0  0  0  0  0  0999 V2000
   -2.1319    5.0559    2.7947 N   0  0  0  0  0  0  0  0  0  0  0  0
   -2.7653    4.3860    1.8255 C   0  0  0  0  0  0  0  0  0  0  0  0
   -4.0788    4.4978    1.5841 N   0  0  0  0  0  0  0  0  0  0  0  0
   -4.8172    5.3296    2.3545 C   0  0  0  0  0  0  0  0  0  0  0  0
   -4.2599    6.0149    3.4225 C   0  0  0  0  0  0  0  0  0  0  0  0
   -2.9002    5.8419    3.5816 C   0  0  0  0  0  0  0  0  0  0  0  0
   -4.9645    6.9599    4.3182 C   0  0  0  0  0  0  0  0  0  0  0  0
   -6.1580    7.4827    3.9014 N   0  0  0  0  0  0  0  0  0  0  0  0
   -4.4960    7.2935    5.4034 O   0  0  0  0  0  0  0  0  0  0  0  0
   -6.1985    5.4671    2.0328 N   0  0  0  0  0  0  0  0  0  0  0  0
   -6.6905    5.3316    0.7101 C   0  0  0  0  0  0  0  0  0  0  0  0
   -7.9935    4.8850    0.4659 C   0  0  0  0  0  0  0  0  0  0  0  0
   -8.4650    4.7878   -0.8543 C   0  0  0  0  0  0  0  0  0  0  0  0
   -7.6450    5.1544   -1.9312 C   0  0  0  0  0  0  0  0  0  0  0  0
   -6.3709    5.6562   -1.6875 C   0  0  0  0  0  0  0  0  0  0  0  0
   -5.9151    5.7654   -0.3780 C   0  0  0  0  0  0  0  0  0  0  0  0
   -1.9948    3.6041    1.0466 N   0  0  0  0  0  2  0  0  0  0  0  0
   -9.7758    4.3255   -1.1156 N   0  0  0  0  0  0  0  0  0  0  0  0
  -10.6467    3.9835   -0.1205 N   0  0  0  0  0  0  0  0  0  0  0  0
  -11.7461    3.6642   -0.8063 C   0  0  0  0  0  0  0  0  0  0  0  0
  -11.5228    3.8261   -2.1739 C   0  0  0  0  0  0  0  0  0  0  0  0
  -10.2773    4.2489   -2.3845 N   0  0  0  0  0  0  0  0  0  0  0  0
   -2.6778    2.4982    0.3116 C   0  0  2  0  0  0  0  0  0  0  0  0
   -3.1032    1.3594    1.2608 C   0  0  0  0  0  0  0  0  0  0  0  0
   -1.9200    0.6166    1.8813 C   0  0  0  0  0  0  0  0  0  0  0  0
   -0.9159    0.1147    0.8486 C   0  0  0  0  0  0  0  0  0  0  0  0
   -0.5364    1.1558   -0.2014 C   0  0  0  0  0  0  0  0  0  0  0  0
   -1.7554    1.8875   -0.7866 C   0  0  2  0  0  0  0  0  0  0  0  0
   -1.3254    2.9317   -1.7351 N   0  0  0  0  0  0  0  0  0  0  0  0
   -2.3535    6.3721    4.3531 H   0  0  0  0  0  0  0  0  0  0  0  0
   -6.5896    8.1994    4.4669 H   0  0  0  0  0  0  0  0  0  0  0  0
   -6.4986    7.3166    2.9585 H   0  0  0  0  0  0  0  0  0  0  0  0
   -6.7238    4.9132    2.7039 H   0  0  0  0  0  0  0  0  0  0  0  0
   -8.6255    4.5864    1.2993 H   0  0  0  0  0  0  0  0  0  0  0  0
   -7.9748    5.0568   -2.9595 H   0  0  0  0  0  0  0  0  0  0  0  0
   -5.7166    5.9449   -2.5048 H   0  0  0  0  0  0  0  0  0  0  0  0
   -4.9095    6.1503   -0.2131 H   0  0  0  0  0  0  0  0  0  0  0  0
  -12.6358    3.3438   -0.2840 H   0  0  0  0  0  0  0  0  0  0  0  0
  -12.1885    3.6673   -3.0104 H   0  0  0  0  0  0  0  0  0  0  0  0
   -3.5761    2.8610   -0.2100 H   0  0  0  0  0  0  0  0  0  0  0  0
   -3.7496    1.7362    2.0619 H   0  0  0  0  0  0  0  0  0  0  0  0
   -3.7092    0.6406    0.6932 H   0  0  0  0  0  0  0  0  0  0  0  0
   -1.4104    1.2696    2.5994 H   0  0  0  0  0  0  0  0  0  0  0  0
   -2.2968   -0.2390    2.4546 H   0  0  0  0  0  0  0  0  0  0  0  0
   -0.0080   -0.2228    1.3638 H   0  0  0  0  0  0  0  0  0  0  0  0
   -1.3304   -0.7667    0.3445 H   0  0  0  0  0  0  0  0  0  0  0  0
    0.1662    1.8743    0.2399 H   0  0  0  0  0  0  0  0  0  0  0  0
    0.0100    0.6495   -1.0083 H   0  0  0  0  0  0  0  0  0  0  0  0
   -2.3399    1.1555   -1.3592 H   0  0  0  0  0  0  0  0  0  0  0  0
   -0.3391    2.8064   -1.9364 H   0  0  0  0  0  0  0  0  0  0  0  0
   -1.3659    3.7892   -1.1633 H   0  0  0  0  0  0  0  0  0  0  0  0
  1  2  2  0  0  0  0
  2  3  1  0  0  0  0
  2 17  1  0  0  0  0
  3  4  2  0  0  0  0
  4  5  1  0  0  0  0
  4 10  1  0  0  0  0
  5  6  2  0  0  0  0
  5  7  1  0  0  0  0
  6  1  1  0  0  0  0
  6 30  1  0  0  0  0
  7  8  1  0  0  0  0
  7  9  2  0  0  0  0
  8 31  1  0  0  0  0
  8 32  1  0  0  0  0
 10 11  1  0  0  0  0
 10 33  1  0  0  0  0
 11 12  2  0  0  0  0
 12 13  1  0  0  0  0
 12 34  1  0  0  0  0
 13 14  2  0  0  0  0
 13 18  1  0  0  0  0
 14 15  1  0  0  0  0
 14 35  1  0  0  0  0
 15 16  2  0  0  0  0
 15 36  1  0  0  0  0
 16 11  1  0  0  0  0
 16 37  1  0  0  0  0
 18 19  1  0  0  0  0
 19 20  2  0  0  0  0
 20 21  1  0  0  0  0
 20 38  1  0  0  0  0
 21 22  2  0  0  0  0
 21 39  1  0  0  0  0
 22 18  1  0  0  0  0
 23 24  1  0  0  0  0
 23 40  1  6  0  0  0
 23 17  1  0  0  0  0
 24 25  1  0  0  0  0
 24 41  1  0  0  0  0
 24 42  1  0  0  0  0
 25 26  1  0  0  0  0
 25 43  1  0  0  0  0
 25 44  1  0  0  0  0
 26 27  1  0  0  0  0
 26 45  1  0  0  0  0
 26 46  1  0  0  0  0
 27 28  1  0  0  0  0
 27 47  1  0  0  0  0
 27 48  1  0  0  0  0
 28 23  1  0  0  0  0
 28 49  1  6  0  0  0
 28 29  1  0  0  0  0
 29 50  1  0  0  0  0
 29 51  1  0  0  0  0
M  END
>  <Mol_ID>
3863

>  <Formula>
C19H24ClN9O

>  <MolWeight>
429.90656

>  <Cat>
S8032

>  <Name>
PRT062607 (P505-15) HCl

>  <Synonyms>
BIIB057, PRT-2607

>  <Target>
FAK,FLT3,Mixed Lineage Kinase,PAK,Pyk2,Src,Syk

>  <Form>
Hydrochloride

>  <CAS>
1370261-97-4

>  <URL>
http://selleckchem.com/products/prt062607-p505-15-hcl.html

$$$$
