P529.cdx
 OpenBabel08302520013D

 52 55  0  0  0  0  0  0  0  0999 V2000
    2.7589    6.4145    1.2232 C   0  0  0  0  0  0  0  0  0  0  0  0
    3.6751    5.6388    1.9294 C   0  0  0  0  0  0  0  0  0  0  0  0
    3.4344    4.2772    2.1019 C   0  0  0  0  0  0  0  0  0  0  0  0
    2.2011    3.7349    1.7399 C   0  0  0  0  0  0  0  0  0  0  0  0
    1.1919    4.5653    1.2399 C   0  0  0  0  0  0  0  0  0  0  0  0
    1.5213    5.8781    0.8765 C   0  0  0  0  0  0  0  0  0  0  0  0
    4.8197    6.1250    2.4996 O   0  0  0  0  0  0  0  0  0  0  0  0
    4.7292    7.4851    2.9252 C   0  0  0  0  0  0  0  0  0  0  0  0
   -0.2644    4.1657    1.1895 C   0  0  0  0  0  0  0  0  0  0  0  0
   -0.5551    2.8273    1.5462 O   0  0  0  0  0  0  0  0  0  0  0  0
   -0.5519    2.3780    2.8347 C   0  0  0  0  0  0  0  0  0  0  0  0
   -0.7036    0.9856    2.9120 C   0  0  0  0  0  0  0  0  0  0  0  0
   -0.4835    0.3060    4.0965 C   0  0  0  0  0  0  0  0  0  0  0  0
   -0.2510    1.0007    5.2854 C   0  0  0  0  0  0  0  0  0  0  0  0
   -0.3181    2.3924    5.2426 C   0  0  0  0  0  0  0  0  0  0  0  0
   -0.4043    3.1008    4.0236 C   0  0  0  0  0  0  0  0  0  0  0  0
   -1.0339    0.2187    1.8237 O   0  0  0  0  0  0  0  0  0  0  0  0
   -2.3536    0.5163    1.3541 C   0  0  0  0  0  0  0  0  0  0  0  0
   -0.1505    0.3114    6.5595 C   0  0  0  0  0  0  0  0  0  0  0  0
   -0.5752    0.9668    7.7117 C   0  0  0  0  0  0  0  0  0  0  0  0
   -0.7099    2.4517    7.6815 C   0  0  0  0  0  0  0  0  0  0  0  0
   -0.4018    3.1012    6.4689 O   0  0  0  0  0  0  0  0  0  0  0  0
    0.2112   -1.0408    6.6426 C   0  0  0  0  0  0  0  0  0  0  0  0
   -0.1266   -1.7935    7.7560 C   0  0  0  0  0  0  0  0  0  0  0  0
   -0.7906   -1.1924    8.8367 C   0  0  0  0  0  0  0  0  0  0  0  0
   -0.9169    0.2110    8.8496 C   0  0  0  0  0  0  0  0  0  0  0  0
   -1.0169    3.0785    8.6892 O   0  0  0  0  0  0  0  0  0  0  0  0
   -1.4298   -2.1036    9.8630 C   0  0  3  0  0  0  0  0  0  0  0  0
   -0.9342   -1.8995   11.2805 C   0  0  0  0  0  0  0  0  0  0  0  0
   -2.8485   -1.9431    9.8456 O   0  0  0  0  0  0  0  0  0  0  0  0
    2.9650    7.4513    0.9798 H   0  0  0  0  0  0  0  0  0  0  0  0
    4.1782    3.6485    2.5839 H   0  0  0  0  0  0  0  0  0  0  0  0
    2.0205    2.6782    1.9228 H   0  0  0  0  0  0  0  0  0  0  0  0
    0.7906    6.5109    0.3773 H   0  0  0  0  0  0  0  0  0  0  0  0
    4.9524    8.1497    2.0856 H   0  0  0  0  0  0  0  0  0  0  0  0
    3.7518    7.7291    3.3623 H   0  0  0  0  0  0  0  0  0  0  0  0
    5.4814    7.6509    3.7019 H   0  0  0  0  0  0  0  0  0  0  0  0
   -0.8652    4.8524    1.7953 H   0  0  0  0  0  0  0  0  0  0  0  0
   -0.6029    4.2740    0.1511 H   0  0  0  0  0  0  0  0  0  0  0  0
   -0.5758   -0.7747    4.0892 H   0  0  0  0  0  0  0  0  0  0  0  0
   -0.3837    4.1860    4.0334 H   0  0  0  0  0  0  0  0  0  0  0  0
   -3.0871   -0.0807    1.9078 H   0  0  0  0  0  0  0  0  0  0  0  0
   -2.6358    1.5730    1.4286 H   0  0  0  0  0  0  0  0  0  0  0  0
   -2.4002    0.2326    0.2992 H   0  0  0  0  0  0  0  0  0  0  0  0
    0.6815   -1.5458    5.7998 H   0  0  0  0  0  0  0  0  0  0  0  0
    0.0667   -2.8634    7.7444 H   0  0  0  0  0  0  0  0  0  0  0  0
   -1.3546    0.7140    9.7124 H   0  0  0  0  0  0  0  0  0  0  0  0
   -1.2466   -3.1506    9.5896 H   0  0  0  0  0  0  0  0  0  0  0  0
   -1.1697   -0.8956   11.6454 H   0  0  0  0  0  0  0  0  0  0  0  0
   -1.4377   -2.6046   11.9523 H   0  0  0  0  0  0  0  0  0  0  0  0
    0.1453   -2.0607   11.3504 H   0  0  0  0  0  0  0  0  0  0  0  0
   -3.0532   -1.0346    9.5715 H   0  0  0  0  0  0  0  0  0  0  0  0
  1  2  2  0  0  0  0
  1 31  1  0  0  0  0
  2  3  1  0  0  0  0
  2  7  1  0  0  0  0
  3  4  2  0  0  0  0
  3 32  1  0  0  0  0
  4  5  1  0  0  0  0
  4 33  1  0  0  0  0
  5  6  2  0  0  0  0
  5  9  1  0  0  0  0
  6  1  1  0  0  0  0
  6 34  1  0  0  0  0
  7  8  1  0  0  0  0
  8 35  1  0  0  0  0
  8 36  1  0  0  0  0
  8 37  1  0  0  0  0
  9 10  1  0  0  0  0
  9 38  1  0  0  0  0
  9 39  1  0  0  0  0
 10 11  1  0  0  0  0
 11 12  2  0  0  0  0
 12 13  1  0  0  0  0
 12 17  1  0  0  0  0
 13 14  2  0  0  0  0
 13 40  1  0  0  0  0
 14 15  1  0  0  0  0
 14 19  1  0  0  0  0
 15 16  2  0  0  0  0
 16 11  1  0  0  0  0
 16 41  1  0  0  0  0
 17 18  1  0  0  0  0
 18 42  1  0  0  0  0
 18 43  1  0  0  0  0
 18 44  1  0  0  0  0
 19 20  2  0  0  0  0
 19 23  1  0  0  0  0
 20 21  1  0  0  0  0
 21 22  1  0  0  0  0
 21 27  2  0  0  0  0
 22 15  1  0  0  0  0
 23 24  2  0  0  0  0
 23 45  1  0  0  0  0
 24 25  1  0  0  0  0
 24 46  1  0  0  0  0
 25 26  2  0  0  0  0
 25 28  1  0  0  0  0
 26 20  1  0  0  0  0
 26 47  1  0  0  0  0
 28 29  1  0  0  0  0
 28 30  1  0  0  0  0
 28 48  1  0  0  0  0
 29 49  1  0  0  0  0
 29 50  1  0  0  0  0
 29 51  1  0  0  0  0
 30 52  1  0  0  0  0
M  END
>  <Mol_ID>
299

>  <Formula>
C24H22O6

>  <MolWeight>
406.42788

>  <Cat>
S2238

>  <Name>
Palomid 529 (P529)

>  <Synonyms>
SG 00529

>  <Target>
mTOR

>  <Form>
free base

>  <CAS>
914913-88-5

>  <URL>
http://selleckchem.com/products/Palomid-529-P529.html

$$$$
