Paeonol.cdx
 OpenBabel08302521373D

 22 22  0  0  0  0  0  0  0  0999 V2000
    0.1632   -1.2152    0.0078 C   0  0  0  0  0  0  0  0  0  0  0  0
    0.8562    0.0032    0.0154 C   0  0  0  0  0  0  0  0  0  0  0  0
    0.1631    1.2146    0.0137 C   0  0  0  0  0  0  0  0  0  0  0  0
   -1.2329    1.2322    0.0000 C   0  0  0  0  0  0  0  0  0  0  0  0
   -1.9289    0.0233   -0.0104 C   0  0  0  0  0  0  0  0  0  0  0  0
   -1.2367   -1.1930   -0.0054 C   0  0  0  0  0  0  0  0  0  0  0  0
    0.9098   -2.5075    0.0131 C   0  0  0  0  0  0  0  0  0  0  0  0
    2.1410   -2.4878    0.0124 O   0  0  0  0  0  0  0  0  0  0  0  0
    0.1403   -3.8017    0.0245 C   0  0  0  0  0  0  0  0  0  0  0  0
    2.2239    0.0882    0.0219 O   0  0  0  0  0  0  0  0  0  0  0  0
   -1.7992    2.4767   -0.0012 O   0  0  0  0  0  0  0  0  0  0  0  0
   -3.2206    2.5344   -0.0340 C   0  0  0  0  0  0  0  0  0  0  0  0
    0.7176    2.1500    0.0226 H   0  0  0  0  0  0  0  0  0  0  0  0
   -3.0142   -0.0095   -0.0217 H   0  0  0  0  0  0  0  0  0  0  0  0
   -1.8233   -2.1070   -0.0124 H   0  0  0  0  0  0  0  0  0  0  0  0
   -0.4645   -3.8732    0.9322 H   0  0  0  0  0  0  0  0  0  0  0  0
   -0.4858   -3.8776   -0.8682 H   0  0  0  0  0  0  0  0  0  0  0  0
    0.8424   -4.6415    0.0170 H   0  0  0  0  0  0  0  0  0  0  0  0
    2.5858   -0.8270    0.0127 H   0  0  0  0  0  0  0  0  0  0  0  0
   -3.6123    2.0781   -0.9495 H   0  0  0  0  0  0  0  0  0  0  0  0
   -3.6550    2.0671    0.8564 H   0  0  0  0  0  0  0  0  0  0  0  0
   -3.5157    3.5877   -0.0343 H   0  0  0  0  0  0  0  0  0  0  0  0
  1  2  2  0  0  0  0
  1  7  1  0  0  0  0
  2  3  1  0  0  0  0
  2 10  1  0  0  0  0
  3  4  2  0  0  0  0
  3 13  1  0  0  0  0
  4  5  1  0  0  0  0
  4 11  1  0  0  0  0
  5  6  2  0  0  0  0
  5 14  1  0  0  0  0
  6  1  1  0  0  0  0
  6 15  1  0  0  0  0
  7  8  2  0  0  0  0
  7  9  1  0  0  0  0
  9 16  1  0  0  0  0
  9 17  1  0  0  0  0
  9 18  1  0  0  0  0
 10 19  1  0  0  0  0
 11 12  1  0  0  0  0
 12 20  1  0  0  0  0
 12 21  1  0  0  0  0
 12 22  1  0  0  0  0
M  END
>  <Mol_ID>
716

>  <Formula>
C9H10O3

>  <MolWeight>
166.1739

>  <Cat>
S2339

>  <Name>
Paeonol

>  <Synonyms>
Peonol

>  <Target>
MAO

>  <Form>
free base

>  <CAS>
552-41-0

>  <URL>
http://selleckchem.com/products/Paeonol(Peonol).html

$$$$
