Palmatine hydrochloride.cdx
 OpenBabel08302521323D

 48 51  0  0  0  0  0  0  0  0999 V2000
   -4.3176   -1.3408    0.1822 C   0  0  0  0  0  0  0  0  0  0  0  0
   -4.7419   -0.0167    0.0544 C   0  0  0  0  0  0  0  0  0  0  0  0
   -3.7754    1.0088   -0.0645 C   0  0  0  0  0  0  0  0  0  0  0  0
   -2.3782    0.6777   -0.0788 C   0  0  0  0  0  0  0  0  0  0  0  0
   -2.0002   -0.6750    0.0483 C   0  0  0  0  0  0  0  0  0  0  0  0
   -2.9667   -1.6658    0.1746 C   0  0  0  0  0  0  0  0  0  0  0  0
   -1.3249    1.6016   -0.2020 C   0  0  0  0  0  0  0  0  0  0  0  0
   -0.0139    1.2276   -0.1910 N   0  3  0  0  0  0  0  0  0  0  0  0
    0.3462   -0.0826   -0.0684 C   0  0  0  0  0  0  0  0  0  0  0  0
   -0.6562   -1.0425    0.0599 C   0  0  0  0  0  0  0  0  0  0  0  0
    1.0291    2.2737   -0.3888 C   0  0  0  0  0  0  0  0  0  0  0  0
    2.2396    1.9947    0.4895 C   0  0  0  0  0  0  0  0  0  0  0  0
    2.7241    0.6001    0.2191 C   0  0  0  0  0  0  0  0  0  0  0  0
    1.7907   -0.3947   -0.0500 C   0  0  0  0  0  0  0  0  0  0  0  0
    4.0884    0.2835    0.2729 C   0  0  0  0  0  0  0  0  0  0  0  0
    4.6057   -1.0168    0.0388 C   0  0  0  0  0  0  0  0  0  0  0  0
    3.6907   -2.0277   -0.2432 C   0  0  0  0  0  0  0  0  0  0  0  0
    2.3067   -1.6826   -0.2777 C   0  0  0  0  0  0  0  0  0  0  0  0
   -6.0745    0.2934    0.1191 O   0  0  0  0  0  0  0  0  0  0  0  0
   -4.0280    2.3600   -0.1847 O   0  0  0  0  0  0  0  0  0  0  0  0
   -6.9852   -0.6762   -0.4004 C   0  0  0  0  0  0  0  0  0  0  0  0
   -5.3821    2.8158   -0.1487 C   0  0  0  0  0  0  0  0  0  0  0  0
    3.7604   -3.3569   -0.5129 O   0  0  0  0  0  0  0  0  0  0  0  0
    5.9537   -0.9293    0.1600 O   0  0  0  0  0  0  0  0  0  0  0  0
    6.8768   -1.9698   -0.0295 C   0  0  0  0  0  0  0  0  0  0  0  0
    4.9227   -4.1425   -0.5769 C   0  0  0  0  0  0  0  0  0  0  0  0
   -5.0183   -2.1575    0.3176 H   0  0  0  0  0  0  0  0  0  0  0  0
   -2.6923   -2.7143    0.2787 H   0  0  0  0  0  0  0  0  0  0  0  0
   -1.5274    2.6629   -0.3207 H   0  0  0  0  0  0  0  0  0  0  0  0
   -0.3980   -2.0924    0.1874 H   0  0  0  0  0  0  0  0  0  0  0  0
    0.6051    3.2530   -0.1456 H   0  0  0  0  0  0  0  0  0  0  0  0
    1.2817    2.2467   -1.4563 H   0  0  0  0  0  0  0  0  0  0  0  0
    1.9776    2.0785    1.5510 H   0  0  0  0  0  0  0  0  0  0  0  0
    3.0245    2.7278    0.2730 H   0  0  0  0  0  0  0  0  0  0  0  0
    4.8029    1.0783    0.5034 H   0  0  0  0  0  0  0  0  0  0  0  0
    1.6221   -2.5023   -0.5067 H   0  0  0  0  0  0  0  0  0  0  0  0
   -6.7513   -0.9062   -1.4454 H   0  0  0  0  0  0  0  0  0  0  0  0
   -7.0055   -1.5854    0.2080 H   0  0  0  0  0  0  0  0  0  0  0  0
   -7.9915   -0.2489   -0.3617 H   0  0  0  0  0  0  0  0  0  0  0  0
   -5.9689    2.3973   -0.9746 H   0  0  0  0  0  0  0  0  0  0  0  0
   -5.8405    2.6196    0.8261 H   0  0  0  0  0  0  0  0  0  0  0  0
   -5.3794    3.9018   -0.2880 H   0  0  0  0  0  0  0  0  0  0  0  0
    6.7522   -2.7483    0.7214 H   0  0  0  0  0  0  0  0  0  0  0  0
    6.8648   -2.3298   -1.0582 H   0  0  0  0  0  0  0  0  0  0  0  0
    7.8769   -1.5538    0.1354 H   0  0  0  0  0  0  0  0  0  0  0  0
    5.5662   -3.8326   -1.3993 H   0  0  0  0  0  0  0  0  0  0  0  0
    5.4214   -4.1956    0.3902 H   0  0  0  0  0  0  0  0  0  0  0  0
    4.6095   -5.1665   -0.8094 H   0  0  0  0  0  0  0  0  0  0  0  0
  1  2  2  0  0  0  0
  1 27  1  0  0  0  0
  2  3  1  0  0  0  0
  2 19  1  0  0  0  0
  3  4  2  0  0  0  0
  3 20  1  0  0  0  0
  4  5  1  0  0  0  0
  4  7  1  0  0  0  0
  5  6  2  0  0  0  0
  6  1  1  0  0  0  0
  6 28  1  0  0  0  0
  7  8  2  0  0  0  0
  7 29  1  0  0  0  0
  8  9  1  0  0  0  0
  8 11  1  0  0  0  0
  9 10  2  0  0  0  0
 10  5  1  0  0  0  0
 10 30  1  0  0  0  0
 11 12  1  0  0  0  0
 11 31  1  0  0  0  0
 11 32  1  0  0  0  0
 12 13  1  0  0  0  0
 12 33  1  0  0  0  0
 12 34  1  0  0  0  0
 13 14  2  0  0  0  0
 13 15  1  0  0  0  0
 14  9  1  0  0  0  0
 15 16  2  0  0  0  0
 15 35  1  0  0  0  0
 16 17  1  0  0  0  0
 16 24  1  0  0  0  0
 17 18  2  0  0  0  0
 17 23  1  0  0  0  0
 18 14  1  0  0  0  0
 18 36  1  0  0  0  0
 19 21  1  0  0  0  0
 20 22  1  0  0  0  0
 21 37  1  0  0  0  0
 21 38  1  0  0  0  0
 21 39  1  0  0  0  0
 22 40  1  0  0  0  0
 22 41  1  0  0  0  0
 22 42  1  0  0  0  0
 23 26  1  0  0  0  0
 24 25  1  0  0  0  0
 25 43  1  0  0  0  0
 25 44  1  0  0  0  0
 25 45  1  0  0  0  0
 26 46  1  0  0  0  0
 26 47  1  0  0  0  0
 26 48  1  0  0  0  0
M  CHG  1   8   1
M  END
>  <Mol_ID>
597

>  <Formula>
C21H22ClNO4

>  <MolWeight>
387.85668

>  <Cat>
S2397

>  <Name>
Palmatine chloride

>  <Synonyms>
N/A

>  <Target>
Calcium Channel

>  <Form>
Chloride

>  <CAS>
10605-02-4

>  <URL>
http://selleckchem.com/products/Palmatine-chloride.html

$$$$
