Palonosetron
 OpenBabel08302520343D

 46 50  0  0  0  0  0  0  0  0999 V2000
    2.0610    1.8423   -0.2615 N   0  0  0  0  0  0  0  0  0  0  0  0
    2.4053    0.5302    0.1312 C   0  0  0  0  0  0  0  0  0  0  0  0
    1.3104   -0.4806    0.1934 C   0  0  0  0  0  0  0  0  0  0  0  0
    3.1121    2.5513   -1.0269 C   0  0  2  0  0  0  0  0  0  0  0  0
    0.6586    2.1443   -0.5475 C   0  0  0  0  0  0  0  0  0  0  0  0
   -0.0332   -0.0796    0.1951 C   0  0  0  0  0  0  0  0  0  0  0  0
   -0.3242    1.3885    0.3458 C   0  0  2  0  0  0  0  0  0  0  0  0
    4.8223    4.2817   -0.3195 N   0  0  3  0  0  0  0  0  0  0  0  0
    4.4092    2.8553   -0.2123 C   0  0  0  0  0  0  0  0  0  0  0  0
    3.5639    0.1657    0.3154 O   0  0  0  0  0  0  0  0  0  0  0  0
    2.6867    3.8626   -1.7497 C   0  0  3  0  0  0  0  0  0  0  0  0
   -1.0559   -1.0353    0.0700 C   0  0  0  0  0  0  0  0  0  0  0  0
    3.8787    4.2769   -2.6363 C   0  0  0  0  0  0  0  0  0  0  0  0
    5.0807    4.6069   -1.7390 C   0  0  0  0  0  0  0  0  0  0  0  0
    1.6360   -1.8377    0.1129 C   0  0  0  0  0  0  0  0  0  0  0  0
   -1.7658    1.7726   -0.0102 C   0  0  0  0  0  0  0  0  0  0  0  0
    0.6263   -2.7889   -0.0207 C   0  0  0  0  0  0  0  0  0  0  0  0
   -2.7565    0.7652    0.5494 C   0  0  0  0  0  0  0  0  0  0  0  0
   -0.7115   -2.3868   -0.0604 C   0  0  0  0  0  0  0  0  0  0  0  0
   -2.4995   -0.6189   -0.0418 C   0  0  0  0  0  0  0  0  0  0  0  0
    3.7020    5.1039    0.1793 C   0  0  0  0  0  0  0  0  0  0  0  0
    2.4866    5.0133   -0.7486 C   0  0  0  0  0  0  0  0  0  0  0  0
    3.3915    1.8382   -1.8179 H   0  0  0  0  0  0  0  0  0  0  0  0
    0.4843    3.2093   -0.3982 H   0  0  0  0  0  0  0  0  0  0  0  0
    0.4807    1.9014   -1.6025 H   0  0  0  0  0  0  0  0  0  0  0  0
   -0.1470    1.6462    1.4020 H   0  0  0  0  0  0  0  0  0  0  0  0
    4.2900    2.6015    0.8479 H   0  0  0  0  0  0  0  0  0  0  0  0
    5.2283    2.2235   -0.5816 H   0  0  0  0  0  0  0  0  0  0  0  0
    1.8006    3.7195   -2.3761 H   0  0  0  0  0  0  0  0  0  0  0  0
    4.1343    3.4684   -3.3318 H   0  0  0  0  0  0  0  0  0  0  0  0
    3.6125    5.1499   -3.2443 H   0  0  0  0  0  0  0  0  0  0  0  0
    5.3305    5.6732   -1.8293 H   0  0  0  0  0  0  0  0  0  0  0  0
    5.9682    4.0665   -2.0896 H   0  0  0  0  0  0  0  0  0  0  0  0
    2.6778   -2.1537    0.1153 H   0  0  0  0  0  0  0  0  0  0  0  0
   -1.9867    2.7727    0.3815 H   0  0  0  0  0  0  0  0  0  0  0  0
   -1.8904    1.8265   -1.0992 H   0  0  0  0  0  0  0  0  0  0  0  0
    0.8817   -3.8388   -0.1140 H   0  0  0  0  0  0  0  0  0  0  0  0
   -2.6721    0.7270    1.6450 H   0  0  0  0  0  0  0  0  0  0  0  0
   -3.7822    1.0778    0.3180 H   0  0  0  0  0  0  0  0  0  0  0  0
   -1.4842   -3.1387   -0.2038 H   0  0  0  0  0  0  0  0  0  0  0  0
   -3.1434   -1.3506    0.4596 H   0  0  0  0  0  0  0  0  0  0  0  0
   -2.7694   -0.6129   -1.1060 H   0  0  0  0  0  0  0  0  0  0  0  0
    3.4227    4.7765    1.1894 H   0  0  0  0  0  0  0  0  0  0  0  0
    4.0167    6.1484    0.2832 H   0  0  0  0  0  0  0  0  0  0  0  0
    1.5791    4.8989   -0.1520 H   0  0  0  0  0  0  0  0  0  0  0  0
    2.3713    5.9557   -1.3008 H   0  0  0  0  0  0  0  0  0  0  0  0
  2  1  1  0  0  0  0
  3  2  1  0  0  0  0
  4  1  1  0  0  0  0
  4 23  1  6  0  0  0
  5  1  1  0  0  0  0
  5 24  1  0  0  0  0
  5 25  1  0  0  0  0
  6  7  1  0  0  0  0
  6  3  2  0  0  0  0
  7  5  1  0  0  0  0
  7 26  1  1  0  0  0
  8  9  1  0  0  0  0
  8 21  1  0  0  0  0
  9  4  1  0  0  0  0
  9 27  1  0  0  0  0
  9 28  1  0  0  0  0
 10  2  2  0  0  0  0
 11  4  1  0  0  0  0
 11 29  1  0  0  0  0
 12  6  1  0  0  0  0
 13 11  1  0  0  0  0
 13 30  1  0  0  0  0
 13 31  1  0  0  0  0
 14 13  1  0  0  0  0
 14  8  1  0  0  0  0
 14 32  1  0  0  0  0
 14 33  1  0  0  0  0
 15  3  1  0  0  0  0
 15 34  1  0  0  0  0
 16  7  1  0  0  0  0
 16 35  1  0  0  0  0
 16 36  1  0  0  0  0
 17 15  2  0  0  0  0
 17 37  1  0  0  0  0
 18 16  1  0  0  0  0
 18 38  1  0  0  0  0
 18 39  1  0  0  0  0
 19 12  2  0  0  0  0
 19 17  1  0  0  0  0
 19 40  1  0  0  0  0
 20 18  1  0  0  0  0
 20 12  1  0  0  0  0
 20 41  1  0  0  0  0
 20 42  1  0  0  0  0
 21 22  1  0  0  0  0
 21 43  1  0  0  0  0
 21 44  1  0  0  0  0
 22 11  1  0  0  0  0
 22 45  1  0  0  0  0
 22 46  1  0  0  0  0
M  END
>  <Mol_ID>
3385

>  <Formula>
C19H24N2O

>  <MolWeight>
296.40666

>  <Cat>
S5740

>  <Name>
Palonosetron

>  <Synonyms>
RS25259, RS 25259 197

>  <Target>
5-HT Receptor

>  <Form>
Free Base

>  <CAS>
135729-61-2

>  <URL>
http://www.selleckchem.com/products/palonosetron.html

$$$$
