Palonosetron HCl.cdx
 OpenBabel08302521383D

 46 50  0  0  0  0  0  0  0  0999 V2000
    2.4320    0.5240    0.1318 C   0  0  0  0  0  0  0  0  0  0  0  0
    2.1084    1.8342   -0.2773 N   0  0  0  0  0  0  0  0  0  0  0  0
    0.7100    2.1559   -0.5804 C   0  0  0  0  0  0  0  0  0  0  0  0
   -0.2920    1.4153    0.3090 C   0  0  2  0  0  0  0  0  0  0  0  0
   -0.0144   -0.0577    0.1734 C   0  0  0  0  0  0  0  0  0  0  0  0
   -1.0440   -1.0065    0.0472 C   0  0  0  0  0  0  0  0  0  0  0  0
   -0.7095   -2.3625   -0.0764 C   0  0  0  0  0  0  0  0  0  0  0  0
    0.6224   -2.7756   -0.0244 C   0  0  0  0  0  0  0  0  0  0  0  0
    1.6371   -1.8351    0.1128 C   0  0  0  0  0  0  0  0  0  0  0  0
    1.3238   -0.4752    0.1860 C   0  0  0  0  0  0  0  0  0  0  0  0
   -2.4859   -0.5817   -0.0649 C   0  0  0  0  0  0  0  0  0  0  0  0
   -2.7335    0.8101    0.5129 C   0  0  0  0  0  0  0  0  0  0  0  0
   -1.7305    1.8049   -0.0612 C   0  0  0  0  0  0  0  0  0  0  0  0
    3.5835    0.1452    0.3341 O   0  0  0  0  0  0  0  0  0  0  0  0
    4.9993    4.1642   -0.4667 N   0  0  3  0  0  0  0  0  0  0  0  0
    4.4836    2.7843   -0.2509 C   0  0  0  0  0  0  0  0  0  0  0  0
    3.1759    2.5069   -1.0536 C   0  0  2  0  0  0  0  0  0  0  0  0
    2.7862    3.8163   -1.7943 C   0  0  3  0  0  0  0  0  0  0  0  0
    3.9580    4.1407   -2.7411 C   0  0  0  0  0  0  0  0  0  0  0  0
    5.2277    4.3831   -1.9107 C   0  0  0  0  0  0  0  0  0  0  0  0
    3.9674    5.1025    0.0147 C   0  0  0  0  0  0  0  0  0  0  0  0
    2.6800    4.9947   -0.8115 C   0  0  0  0  0  0  0  0  0  0  0  0
    0.5545    3.2280   -0.4430 H   0  0  0  0  0  0  0  0  0  0  0  0
    0.5396    1.9062   -1.6340 H   0  0  0  0  0  0  0  0  0  0  0  0
   -0.1234    1.6814    1.3632 H   0  0  0  0  0  0  0  0  0  0  0  0
   -1.4892   -3.1076   -0.2224 H   0  0  0  0  0  0  0  0  0  0  0  0
    0.8710   -3.8298   -0.1203 H   0  0  0  0  0  0  0  0  0  0  0  0
    2.6785   -2.1578    0.1228 H   0  0  0  0  0  0  0  0  0  0  0  0
   -3.1327   -1.3021    0.4502 H   0  0  0  0  0  0  0  0  0  0  0  0
   -2.7609   -0.5891   -1.1266 H   0  0  0  0  0  0  0  0  0  0  0  0
   -2.6482    0.7856    1.6060 H   0  0  0  0  0  0  0  0  0  0  0  0
   -3.7549    1.1301    0.2750 H   0  0  0  0  0  0  0  0  0  0  0  0
   -1.9467    2.8124    0.3144 H   0  0  0  0  0  0  0  0  0  0  0  0
   -1.8497    1.8434   -1.1519 H   0  0  0  0  0  0  0  0  0  0  0  0
    4.3386    2.6236    0.8241 H   0  0  0  0  0  0  0  0  0  0  0  0
    5.2597    2.0696   -0.5582 H   0  0  0  0  0  0  0  0  0  0  0  0
    3.4299    1.7742   -1.8368 H   0  0  0  0  0  0  0  0  0  0  0  0
    1.8683    3.7054   -2.3806 H   0  0  0  0  0  0  0  0  0  0  0  0
    4.1179    3.3117   -3.4426 H   0  0  0  0  0  0  0  0  0  0  0  0
    3.7236    5.0268   -3.3419 H   0  0  0  0  0  0  0  0  0  0  0  0
    6.0344    3.7286   -2.2631 H   0  0  0  0  0  0  0  0  0  0  0  0
    5.5855    5.4072   -2.0752 H   0  0  0  0  0  0  0  0  0  0  0  0
    3.7482    4.9013    1.0714 H   0  0  0  0  0  0  0  0  0  0  0  0
    4.3487    6.1295   -0.0156 H   0  0  0  0  0  0  0  0  0  0  0  0
    2.5269    5.9233   -1.3759 H   0  0  0  0  0  0  0  0  0  0  0  0
    1.8223    4.8908   -0.1416 H   0  0  0  0  0  0  0  0  0  0  0  0
  1  2  1  0  0  0  0
  1 10  1  0  0  0  0
  1 14  2  0  0  0  0
  2  3  1  0  0  0  0
  3 23  1  0  0  0  0
  3 24  1  0  0  0  0
  4  3  1  0  0  0  0
  4  5  1  0  0  0  0
  4 13  1  0  0  0  0
  4 25  1  1  0  0  0
  5  6  1  0  0  0  0
  5 10  2  0  0  0  0
  6  7  2  0  0  0  0
  6 11  1  0  0  0  0
  7  8  1  0  0  0  0
  7 26  1  0  0  0  0
  8  9  2  0  0  0  0
  8 27  1  0  0  0  0
  9 10  1  0  0  0  0
  9 28  1  0  0  0  0
 11 12  1  0  0  0  0
 11 29  1  0  0  0  0
 11 30  1  0  0  0  0
 12 13  1  0  0  0  0
 12 31  1  0  0  0  0
 12 32  1  0  0  0  0
 13 33  1  0  0  0  0
 13 34  1  0  0  0  0
 15 16  1  0  0  0  0
 15 20  1  0  0  0  0
 15 21  1  0  0  0  0
 16 35  1  0  0  0  0
 16 36  1  0  0  0  0
 17 16  1  0  0  0  0
 17 18  1  0  0  0  0
 17  2  1  0  0  0  0
 17 37  1  6  0  0  0
 18 19  1  0  0  0  0
 18 22  1  0  0  0  0
 18 38  1  0  0  0  0
 19 20  1  0  0  0  0
 19 39  1  0  0  0  0
 19 40  1  0  0  0  0
 20 41  1  0  0  0  0
 20 42  1  0  0  0  0
 21 22  1  0  0  0  0
 21 43  1  0  0  0  0
 21 44  1  0  0  0  0
 22 45  1  0  0  0  0
 22 46  1  0  0  0  0
M  END
>  <Mol_ID>
7719

>  <Formula>
C19H25ClN2O

>  <MolWeight>
332.8676

>  <Cat>
S3050

>  <Name>
Palonosetron HCl

>  <Synonyms>
RS 25259, RS 25259 197

>  <Target>
5-HT Receptor

>  <Form>
HCL

>  <CAS>
135729-62-3

>  <URL>
http://selleckchem.com/products/palonosetron-hcl.html

$$$$
