Pamiparib (BGB-290)
 OpenBabel08302521043D

 37 41  0  0  0  0  0  0  0  0999 V2000
   -2.4734    1.2940    0.2106 C   0  0  1  0  0  0  0  0  0  0  0  0
   -3.2395    0.2854   -0.5430 N   0  0  3  0  0  0  0  0  0  0  0  0
   -3.1220   -1.1117   -0.1049 C   0  0  0  0  0  0  0  0  0  0  0  0
   -1.6331   -1.5353   -0.0155 C   0  0  0  0  0  0  0  0  0  0  0  0
   -0.6591   -0.4572    0.0640 C   0  0  0  0  0  0  0  0  0  0  0  0
   -1.0505    0.8613    0.1498 C   0  0  0  0  0  0  0  0  0  0  0  0
   -2.8322    2.5116   -0.6349 C   0  0  0  0  0  0  0  0  0  0  0  0
   -4.3258    2.3132   -0.9280 C   0  0  0  0  0  0  0  0  0  0  0  0
   -4.5747    0.8087   -0.7664 C   0  0  0  0  0  0  0  0  0  0  0  0
    0.7427   -0.4814   -0.0243 C   0  0  0  0  0  0  0  0  0  0  0  0
    1.1914    0.8368    0.0604 C   0  0  0  0  0  0  0  0  0  0  0  0
    0.0751    1.6426    0.1745 N   0  0  0  0  0  0  0  0  0  0  0  0
    1.6558   -1.5290   -0.2122 C   0  0  0  0  0  0  0  0  0  0  0  0
    3.0197   -1.2462   -0.2916 C   0  0  0  0  0  0  0  0  0  0  0  0
    3.4458    0.0744   -0.1668 C   0  0  0  0  0  0  0  0  0  0  0  0
    2.5560    1.1441    0.0064 C   0  0  0  0  0  0  0  0  0  0  0  0
   -1.3023   -2.7989    0.0530 N   0  0  0  0  0  0  0  0  0  0  0  0
   -0.0063   -3.1468    0.4800 N   0  0  0  0  0  0  0  0  0  0  0  0
    1.0953   -2.8963   -0.3462 C   0  0  0  0  0  0  0  0  0  0  0  0
   -2.8935    1.4795    1.6807 C   0  0  0  0  0  0  0  0  0  0  0  0
    1.6672   -3.7351   -1.0293 O   0  0  0  0  0  0  0  0  0  0  0  0
    4.7589    0.3383   -0.2165 F   0  0  0  0  0  0  0  0  0  0  0  0
   -3.5735   -1.2599    0.8831 H   0  0  0  0  0  0  0  0  0  0  0  0
   -3.6236   -1.7801   -0.8131 H   0  0  0  0  0  0  0  0  0  0  0  0
   -2.6360    3.4656   -0.1347 H   0  0  0  0  0  0  0  0  0  0  0  0
   -2.2776    2.5204   -1.5841 H   0  0  0  0  0  0  0  0  0  0  0  0
   -4.9319    2.8765   -0.2088 H   0  0  0  0  0  0  0  0  0  0  0  0
   -4.5773    2.6676   -1.9327 H   0  0  0  0  0  0  0  0  0  0  0  0
   -5.0308    0.3858   -1.6668 H   0  0  0  0  0  0  0  0  0  0  0  0
   -5.2436    0.6214    0.0818 H   0  0  0  0  0  0  0  0  0  0  0  0
    0.0939    2.6531    0.2244 H   0  0  0  0  0  0  0  0  0  0  0  0
    3.7447   -2.0402   -0.4399 H   0  0  0  0  0  0  0  0  0  0  0  0
    2.9247    2.1612    0.0776 H   0  0  0  0  0  0  0  0  0  0  0  0
    0.1386   -2.6916    1.3776 H   0  0  0  0  0  0  0  0  0  0  0  0
   -2.7204    0.5739    2.2731 H   0  0  0  0  0  0  0  0  0  0  0  0
   -2.3076    2.2829    2.1448 H   0  0  0  0  0  0  0  0  0  0  0  0
   -3.9488    1.7489    1.7897 H   0  0  0  0  0  0  0  0  0  0  0  0
  1  2  1  0  0  0  0
  1  7  1  0  0  0  0
  1 20  1  1  0  0  0
  2  3  1  0  0  0  0
  3  4  1  0  0  0  0
  3 23  1  0  0  0  0
  3 24  1  0  0  0  0
  4  5  1  0  0  0  0
  4 17  2  0  0  0  0
  5  6  2  0  0  0  0
  5 10  1  0  0  0  0
  6  1  1  0  0  0  0
  7  8  1  0  0  0  0
  7 25  1  0  0  0  0
  7 26  1  0  0  0  0
  8  9  1  0  0  0  0
  8 27  1  0  0  0  0
  8 28  1  0  0  0  0
  9  2  1  0  0  0  0
  9 29  1  0  0  0  0
  9 30  1  0  0  0  0
 10 11  2  0  0  0  0
 10 13  1  0  0  0  0
 11 12  1  0  0  0  0
 12  6  1  0  0  0  0
 12 31  1  0  0  0  0
 13 14  2  0  0  0  0
 14 15  1  0  0  0  0
 14 32  1  0  0  0  0
 15 16  2  0  0  0  0
 15 22  1  0  0  0  0
 16 11  1  0  0  0  0
 16 33  1  0  0  0  0
 17 18  1  0  0  0  0
 18 19  1  0  0  0  0
 18 34  1  0  0  0  0
 19 13  1  0  0  0  0
 19 21  2  0  0  0  0
 20 35  1  0  0  0  0
 20 36  1  0  0  0  0
 20 37  1  0  0  0  0
M  END
>  <Mol_ID>
4296

>  <Formula>
C16H15FN4O

>  <MolWeight>
298.3149032

>  <Cat>
S8592

>  <Name>
Pamiparib (BGB-290)

>  <Synonyms>
N/A

>  <Target>
PARP

>  <Form>
Free Base

>  <CAS>
1446261-44-4

>  <URL>
http://www.selleckchem.com/products/bgb-290.html

$$$$
