Pantoprazole.cdx
 OpenBabel08302519503D

 41 43  0  0  0  0  0  0  0  0999 V2000
   -5.9342    2.1619    5.6631 C   0  0  0  0  0  0  0  0  0  0  0  0
   -6.4938    0.8838    5.7733 C   0  0  0  0  0  0  0  0  0  0  0  0
   -6.4001   -0.0357    4.7163 C   0  0  0  0  0  0  0  0  0  0  0  0
   -5.7149    0.3326    3.5505 C   0  0  0  0  0  0  0  0  0  0  0  0
   -5.1135    1.5847    3.4900 C   0  0  0  0  0  0  0  0  0  0  0  0
   -5.2025    2.5266    4.5218 C   0  0  0  0  0  0  0  0  0  0  0  0
   -5.5136   -0.3674    2.3846 N   0  0  0  0  0  0  0  0  0  0  0  0
   -4.7502    0.4050    1.6430 C   0  0  0  0  0  0  0  0  0  0  0  0
   -4.4794    1.5945    2.2748 N   0  0  0  0  0  0  0  0  0  0  0  0
   -6.0053    3.1347    6.6246 O   0  0  0  0  0  0  0  0  0  0  0  0
   -7.1284    3.0671    7.4877 C   0  0  0  0  0  0  0  0  0  0  0  0
   -6.8344    2.2437    8.5239 F   0  0  0  0  0  0  0  0  0  0  0  0
   -7.3095    4.3058    8.0135 F   0  0  0  0  0  0  0  0  0  0  0  0
   -4.1126    0.0120    0.0719 S   0  0  3  0  0  0  0  0  0  0  0  0
   -2.6324    0.2392    0.1964 O   0  0  0  0  0  0  0  0  0  0  0  0
   -4.5210   -1.7591    0.0243 C   0  0  0  0  0  0  0  0  0  0  0  0
   -4.1502   -2.4788   -1.2634 C   0  0  0  0  0  0  0  0  0  0  0  0
   -3.5108   -1.7760   -2.2351 N   0  0  0  0  0  0  0  0  0  0  0  0
   -3.1536   -2.4308   -3.3538 C   0  0  0  0  0  0  0  0  0  0  0  0
   -3.4282   -3.7655   -3.5826 C   0  0  0  0  0  0  0  0  0  0  0  0
   -4.1122   -4.4918   -2.6076 C   0  0  0  0  0  0  0  0  0  0  0  0
   -4.4843   -3.8424   -1.4128 C   0  0  0  0  0  0  0  0  0  0  0  0
   -5.1552   -4.3779   -0.3420 O   0  0  0  0  0  0  0  0  0  0  0  0
   -4.4356   -5.8136   -2.7647 O   0  0  0  0  0  0  0  0  0  0  0  0
   -5.5607   -5.7385   -0.3759 C   0  0  0  0  0  0  0  0  0  0  0  0
   -4.0626   -6.4729   -3.9688 C   0  0  0  0  0  0  0  0  0  0  0  0
   -6.9990    0.5611    6.6803 H   0  0  0  0  0  0  0  0  0  0  0  0
   -6.8359   -1.0264    4.7972 H   0  0  0  0  0  0  0  0  0  0  0  0
   -4.7368    3.5034    4.4457 H   0  0  0  0  0  0  0  0  0  0  0  0
   -3.9020    2.3302    1.8973 H   0  0  0  0  0  0  0  0  0  0  0  0
   -8.0587    2.7569    6.9981 H   0  0  0  0  0  0  0  0  0  0  0  0
   -4.0318   -2.2481    0.8725 H   0  0  0  0  0  0  0  0  0  0  0  0
   -5.6096   -1.8259    0.1396 H   0  0  0  0  0  0  0  0  0  0  0  0
   -2.6191   -1.8344   -4.0877 H   0  0  0  0  0  0  0  0  0  0  0  0
   -3.0988   -4.1993   -4.5196 H   0  0  0  0  0  0  0  0  0  0  0  0
   -6.2781   -5.9211   -1.1816 H   0  0  0  0  0  0  0  0  0  0  0  0
   -4.6978   -6.4097   -0.4274 H   0  0  0  0  0  0  0  0  0  0  0  0
   -6.0763   -5.9521    0.5658 H   0  0  0  0  0  0  0  0  0  0  0  0
   -4.5452   -6.0145   -4.8382 H   0  0  0  0  0  0  0  0  0  0  0  0
   -2.9743   -6.4988   -4.0842 H   0  0  0  0  0  0  0  0  0  0  0  0
   -4.4133   -7.5080   -3.9040 H   0  0  0  0  0  0  0  0  0  0  0  0
  1  2  2  0  0  0  0
  1 10  1  0  0  0  0
  2  3  1  0  0  0  0
  2 27  1  0  0  0  0
  3  4  2  0  0  0  0
  3 28  1  0  0  0  0
  4  5  1  0  0  0  0
  4  7  1  0  0  0  0
  5  6  2  0  0  0  0
  6  1  1  0  0  0  0
  6 29  1  0  0  0  0
  7  8  2  0  0  0  0
  8  9  1  0  0  0  0
  8 14  1  0  0  0  0
  9  5  1  0  0  0  0
  9 30  1  0  0  0  0
 10 11  1  0  0  0  0
 11 12  1  0  0  0  0
 11 13  1  0  0  0  0
 11 31  1  0  0  0  0
 14 15  2  0  0  0  0
 14 16  1  0  0  0  0
 16 17  1  0  0  0  0
 16 32  1  0  0  0  0
 16 33  1  0  0  0  0
 17 18  2  0  0  0  0
 18 19  1  0  0  0  0
 19 20  2  0  0  0  0
 19 34  1  0  0  0  0
 20 21  1  0  0  0  0
 20 35  1  0  0  0  0
 21 22  2  0  0  0  0
 21 24  1  0  0  0  0
 22 17  1  0  0  0  0
 22 23  1  0  0  0  0
 23 25  1  0  0  0  0
 24 26  1  0  0  0  0
 25 36  1  0  0  0  0
 25 37  1  0  0  0  0
 25 38  1  0  0  0  0
 26 39  1  0  0  0  0
 26 40  1  0  0  0  0
 26 41  1  0  0  0  0
M  END
>  <Mol_ID>
1608

>  <Formula>
C16H15F2N3O4S

>  <MolWeight>
383.3698064

>  <Cat>
S2105

>  <Name>
Pantoprazole

>  <Synonyms>
SKFSKF96022, BY-1023

>  <Target>
ATPase,Proton Pump

>  <Form>
free base

>  <CAS>
102625-70-7

>  <URL>
http://selleckchem.com/products/pantoprazole-protonix.html

$$$$
