PD-0332991 hydrochloride.cdx
 OpenBabel08302520433D

 62 66  0  0  0  0  0  0  0  0999 V2000
    2.4229   -0.4935   -0.1202 N   0  0  0  0  0  0  0  0  0  0  0  0
    2.3152    0.8291   -0.0423 C   0  0  0  0  0  0  0  0  0  0  0  0
    1.1308    1.4633    0.0195 N   0  0  0  0  0  0  0  0  0  0  0  0
   -0.0055    0.7325    0.0018 C   0  0  0  0  0  0  0  0  0  0  0  0
    0.0083   -0.6506    0.0003 C   0  0  0  0  0  0  0  0  0  0  0  0
    1.2785   -1.1992   -0.0493 C   0  0  0  0  0  0  0  0  0  0  0  0
   -1.2595    1.3972    0.0122 N   0  0  0  0  0  0  0  0  0  0  0  0
   -2.4418    0.6881    0.1994 C   0  0  0  0  0  0  0  0  0  0  0  0
   -2.4302   -0.8075    0.0601 C   0  0  0  0  0  0  0  0  0  0  0  0
   -1.2388   -1.4546    0.0103 C   0  0  0  0  0  0  0  0  0  0  0  0
   -1.0204   -2.9517   -0.0353 C   0  0  0  0  0  0  0  0  0  0  0  0
   -3.7528   -1.5489    0.0438 C   0  0  0  0  0  0  0  0  0  0  0  0
   -5.0195   -0.8862   -0.4607 C   0  0  0  0  0  0  0  0  0  0  0  0
   -3.8346   -2.7179    0.4294 O   0  0  0  0  0  0  0  0  0  0  0  0
   -3.4989    1.2510    0.4871 O   0  0  0  0  0  0  0  0  0  0  0  0
   -1.3620    2.8570   -0.0293 C   0  0  0  0  0  0  0  0  0  0  0  0
   -0.7077    3.6094   -1.1890 C   0  0  0  0  0  0  0  0  0  0  0  0
   -0.8532    5.0771   -0.7675 C   0  0  0  0  0  0  0  0  0  0  0  0
   -1.0350    5.0737    0.7569 C   0  0  0  0  0  0  0  0  0  0  0  0
   -0.8719    3.6205    1.1969 C   0  0  0  0  0  0  0  0  0  0  0  0
    3.5059    1.5392   -0.0232 N   0  0  0  0  0  0  0  0  0  0  0  0
    3.7354    2.8154    0.4729 C   0  0  0  0  0  0  0  0  0  0  0  0
    4.6261    3.5914   -0.1735 N   0  0  0  0  0  0  0  0  0  0  0  0
    4.8804    4.8193    0.3645 C   0  0  0  0  0  0  0  0  0  0  0  0
    4.3503    5.3320    1.5484 C   0  0  0  0  0  0  0  0  0  0  0  0
    3.4461    4.4793    2.1872 C   0  0  0  0  0  0  0  0  0  0  0  0
    3.1279    3.2350    1.6425 C   0  0  0  0  0  0  0  0  0  0  0  0
    4.6764    6.5571    2.0749 N   0  0  0  0  0  0  0  0  0  0  0  0
    4.7217    6.8066    3.5230 C   0  0  0  0  0  0  0  0  0  0  0  0
    3.8348    8.0156    3.8815 C   0  0  0  0  0  0  0  0  0  0  0  0
    4.1957    9.2348    3.1259 N   0  0  0  0  0  0  0  0  0  0  0  0
    4.1179    8.9355    1.6782 C   0  0  0  0  0  0  0  0  0  0  0  0
    4.9687    7.7187    1.2269 C   0  0  0  0  0  0  0  0  0  0  0  0
    1.4533   -2.2714   -0.0369 H   0  0  0  0  0  0  0  0  0  0  0  0
   -0.4317   -3.2271   -0.9182 H   0  0  0  0  0  0  0  0  0  0  0  0
   -0.4765   -3.2739    0.8621 H   0  0  0  0  0  0  0  0  0  0  0  0
   -1.9148   -3.5658   -0.0864 H   0  0  0  0  0  0  0  0  0  0  0  0
   -5.4226   -1.4755   -1.2896 H   0  0  0  0  0  0  0  0  0  0  0  0
   -5.7484   -0.8705    0.3564 H   0  0  0  0  0  0  0  0  0  0  0  0
   -4.8895    0.1261   -0.8375 H   0  0  0  0  0  0  0  0  0  0  0  0
   -2.4303    3.0975   -0.1256 H   0  0  0  0  0  0  0  0  0  0  0  0
    0.3530    3.3742   -1.3104 H   0  0  0  0  0  0  0  0  0  0  0  0
   -1.2022    3.4085   -2.1450 H   0  0  0  0  0  0  0  0  0  0  0  0
    0.0168    5.6674   -1.0712 H   0  0  0  0  0  0  0  0  0  0  0  0
   -1.7347    5.5252   -1.2427 H   0  0  0  0  0  0  0  0  0  0  0  0
   -0.3269    5.7385    1.2599 H   0  0  0  0  0  0  0  0  0  0  0  0
   -2.0454    5.4231    1.0030 H   0  0  0  0  0  0  0  0  0  0  0  0
   -1.4505    3.3912    2.0967 H   0  0  0  0  0  0  0  0  0  0  0  0
    0.1798    3.4171    1.4134 H   0  0  0  0  0  0  0  0  0  0  0  0
    4.1256    1.2726   -0.7677 H   0  0  0  0  0  0  0  0  0  0  0  0
    5.5981    5.3981   -0.2161 H   0  0  0  0  0  0  0  0  0  0  0  0
    2.9491    4.7709    3.1067 H   0  0  0  0  0  0  0  0  0  0  0  0
    2.4348    2.5878    2.1769 H   0  0  0  0  0  0  0  0  0  0  0  0
    4.4240    5.9424    4.1249 H   0  0  0  0  0  0  0  0  0  0  0  0
    5.7613    7.0210    3.8017 H   0  0  0  0  0  0  0  0  0  0  0  0
    2.7806    7.7738    3.6960 H   0  0  0  0  0  0  0  0  0  0  0  0
    3.9280    8.2260    4.9525 H   0  0  0  0  0  0  0  0  0  0  0  0
    5.1647    9.4634    3.3470 H   0  0  0  0  0  0  0  0  0  0  0  0
    3.0667    8.7618    1.4137 H   0  0  0  0  0  0  0  0  0  0  0  0
    4.4385    9.8226    1.1225 H   0  0  0  0  0  0  0  0  0  0  0  0
    6.0353    7.9605    1.3093 H   0  0  0  0  0  0  0  0  0  0  0  0
    4.7509    7.5284    0.1699 H   0  0  0  0  0  0  0  0  0  0  0  0
  1  2  2  0  0  0  0
  2  3  1  0  0  0  0
  2 21  1  0  0  0  0
  3  4  2  0  0  0  0
  4  5  1  0  0  0  0
  4  7  1  0  0  0  0
  5  6  2  0  0  0  0
  6  1  1  0  0  0  0
  6 34  1  0  0  0  0
  7  8  1  0  0  0  0
  7 16  1  0  0  0  0
  8  9  1  0  0  0  0
  8 15  2  0  0  0  0
  9 10  2  0  0  0  0
  9 12  1  0  0  0  0
 10  5  1  0  0  0  0
 10 11  1  0  0  0  0
 11 35  1  0  0  0  0
 11 36  1  0  0  0  0
 11 37  1  0  0  0  0
 12 13  1  0  0  0  0
 12 14  2  0  0  0  0
 13 38  1  0  0  0  0
 13 39  1  0  0  0  0
 13 40  1  0  0  0  0
 16 17  1  0  0  0  0
 16 41  1  0  0  0  0
 17 18  1  0  0  0  0
 17 42  1  0  0  0  0
 17 43  1  0  0  0  0
 18 19  1  0  0  0  0
 18 44  1  0  0  0  0
 18 45  1  0  0  0  0
 19 20  1  0  0  0  0
 19 46  1  0  0  0  0
 19 47  1  0  0  0  0
 20 16  1  0  0  0  0
 20 48  1  0  0  0  0
 20 49  1  0  0  0  0
 21 22  1  0  0  0  0
 21 50  1  0  0  0  0
 22 23  2  0  0  0  0
 23 24  1  0  0  0  0
 24 25  2  0  0  0  0
 24 51  1  0  0  0  0
 25 26  1  0  0  0  0
 25 28  1  0  0  0  0
 26 27  2  0  0  0  0
 26 52  1  0  0  0  0
 27 22  1  0  0  0  0
 27 53  1  0  0  0  0
 28 29  1  0  0  0  0
 29 30  1  0  0  0  0
 29 54  1  0  0  0  0
 29 55  1  0  0  0  0
 30 31  1  0  0  0  0
 30 56  1  0  0  0  0
 30 57  1  0  0  0  0
 31 32  1  0  0  0  0
 31 58  1  0  0  0  0
 32 33  1  0  0  0  0
 32 59  1  0  0  0  0
 32 60  1  0  0  0  0
 33 28  1  0  0  0  0
 33 61  1  0  0  0  0
 33 62  1  0  0  0  0
M  END
>  <Mol_ID>
4039

>  <Formula>
C24H30ClN7O2

>  <MolWeight>
483.9937

>  <Cat>
S1116

>  <Name>
Palbociclib (PD-0332991) HCl

>  <Synonyms>
N/A

>  <Target>
CDK

>  <Form>
Hydrochloride

>  <CAS>
827022-32-2

>  <URL>
http://selleckchem.com/products/PD-0332991.html

$$$$
