PD-166866.cdx
 OpenBabel08302520433D

 53 55  0  0  0  0  0  0  0  0999 V2000
    2.3971   -0.4973   -0.0249 N   0  0  0  0  0  0  0  0  0  0  0  0
    2.2278    0.8240   -0.0473 C   0  0  0  0  0  0  0  0  0  0  0  0
    1.0544    1.4483    0.0794 N   0  0  0  0  0  0  0  0  0  0  0  0
   -0.0496    0.7087    0.1338 C   0  0  0  0  0  0  0  0  0  0  0  0
    0.0168   -0.6700    0.0958 C   0  0  0  0  0  0  0  0  0  0  0  0
    1.2777   -1.2285    0.0480 C   0  0  0  0  0  0  0  0  0  0  0  0
   -1.2428    1.3039    0.2343 N   0  0  0  0  0  0  0  0  0  0  0  0
   -2.3917    0.5825    0.1004 C   0  0  0  0  0  0  0  0  0  0  0  0
   -2.4192   -0.8149   -0.0168 C   0  0  0  0  0  0  0  0  0  0  0  0
   -1.1587   -1.4282    0.0767 C   0  0  0  0  0  0  0  0  0  0  0  0
    3.3629    1.5902   -0.1955 N   0  0  0  0  0  0  0  0  0  0  0  0
   -3.6272   -1.6695   -0.1917 C   0  0  0  0  0  0  0  0  0  0  0  0
   -3.5770    1.3311    0.0421 N   0  0  0  0  0  0  0  0  0  0  0  0
   -3.9363    2.3783    0.8500 C   0  0  0  0  0  0  0  0  0  0  0  0
   -3.1142    2.6211    1.9109 N   0  0  0  0  0  0  0  0  0  0  0  0
   -5.0037    2.9474    0.6578 O   0  0  0  0  0  0  0  0  0  0  0  0
   -3.2577    3.6816    2.9154 C   0  0  0  0  0  0  0  0  0  0  0  0
   -4.4635    3.4293    3.8373 C   0  0  0  0  0  0  0  0  0  0  0  0
   -1.9804    3.6729    3.7737 C   0  0  0  0  0  0  0  0  0  0  0  0
   -3.3926    5.0602    2.2535 C   0  0  0  0  0  0  0  0  0  0  0  0
   -3.5385   -2.8904   -0.8979 C   0  0  0  0  0  0  0  0  0  0  0  0
   -4.6495   -3.7122   -1.1010 C   0  0  0  0  0  0  0  0  0  0  0  0
   -5.8900   -3.3352   -0.5964 C   0  0  0  0  0  0  0  0  0  0  0  0
   -6.0191   -2.1368    0.0983 C   0  0  0  0  0  0  0  0  0  0  0  0
   -4.8898   -1.3395    0.3234 C   0  0  0  0  0  0  0  0  0  0  0  0
   -7.1797   -1.6240    0.6078 O   0  0  0  0  0  0  0  0  0  0  0  0
   -4.6189   -4.9083   -1.7664 O   0  0  0  0  0  0  0  0  0  0  0  0
   -3.6032   -5.0334   -2.7581 C   0  0  0  0  0  0  0  0  0  0  0  0
   -8.3836   -2.2965    0.2622 C   0  0  0  0  0  0  0  0  0  0  0  0
    1.4300   -2.3040    0.0385 H   0  0  0  0  0  0  0  0  0  0  0  0
   -1.0701   -2.5109    0.0880 H   0  0  0  0  0  0  0  0  0  0  0  0
    3.2240    2.5152    0.1755 H   0  0  0  0  0  0  0  0  0  0  0  0
    4.1767    1.0727    0.1092 H   0  0  0  0  0  0  0  0  0  0  0  0
   -4.3237    1.0159   -0.5581 H   0  0  0  0  0  0  0  0  0  0  0  0
   -2.2169    2.1564    1.8589 H   0  0  0  0  0  0  0  0  0  0  0  0
   -4.3718    2.4703    4.3601 H   0  0  0  0  0  0  0  0  0  0  0  0
   -4.5439    4.2144    4.5999 H   0  0  0  0  0  0  0  0  0  0  0  0
   -5.4084    3.4101    3.2838 H   0  0  0  0  0  0  0  0  0  0  0  0
   -1.0883    3.7702    3.1434 H   0  0  0  0  0  0  0  0  0  0  0  0
   -1.9732    4.4941    4.4977 H   0  0  0  0  0  0  0  0  0  0  0  0
   -1.8828    2.7317    4.3273 H   0  0  0  0  0  0  0  0  0  0  0  0
   -2.5845    5.2305    1.5337 H   0  0  0  0  0  0  0  0  0  0  0  0
   -4.3412    5.1638    1.7158 H   0  0  0  0  0  0  0  0  0  0  0  0
   -3.3564    5.8622    2.9997 H   0  0  0  0  0  0  0  0  0  0  0  0
   -2.5803   -3.2125   -1.2926 H   0  0  0  0  0  0  0  0  0  0  0  0
   -6.7350   -3.9921   -0.7689 H   0  0  0  0  0  0  0  0  0  0  0  0
   -5.0378   -0.4466    0.9275 H   0  0  0  0  0  0  0  0  0  0  0  0
   -3.4996   -4.1185   -3.3525 H   0  0  0  0  0  0  0  0  0  0  0  0
   -2.6480   -5.3094   -2.2992 H   0  0  0  0  0  0  0  0  0  0  0  0
   -3.8971   -5.8374   -3.4385 H   0  0  0  0  0  0  0  0  0  0  0  0
   -8.5106   -2.3609   -0.8241 H   0  0  0  0  0  0  0  0  0  0  0  0
   -8.4178   -3.2877    0.7244 H   0  0  0  0  0  0  0  0  0  0  0  0
   -9.2179   -1.7110    0.6597 H   0  0  0  0  0  0  0  0  0  0  0  0
  1  2  2  0  0  0  0
  2  3  1  0  0  0  0
  2 11  1  0  0  0  0
  3  4  2  0  0  0  0
  4  5  1  0  0  0  0
  4  7  1  0  0  0  0
  5  6  2  0  0  0  0
  6  1  1  0  0  0  0
  6 30  1  0  0  0  0
  7  8  2  0  0  0  0
  8  9  1  0  0  0  0
  8 13  1  0  0  0  0
  9 10  2  0  0  0  0
  9 12  1  0  0  0  0
 10  5  1  0  0  0  0
 10 31  1  0  0  0  0
 11 32  1  0  0  0  0
 11 33  1  0  0  0  0
 12 21  2  0  0  0  0
 13 14  1  0  0  0  0
 13 34  1  0  0  0  0
 14 15  1  0  0  0  0
 14 16  2  0  0  0  0
 15 17  1  0  0  0  0
 15 35  1  0  0  0  0
 17 18  1  0  0  0  0
 17 19  1  0  0  0  0
 17 20  1  0  0  0  0
 18 36  1  0  0  0  0
 18 37  1  0  0  0  0
 18 38  1  0  0  0  0
 19 39  1  0  0  0  0
 19 40  1  0  0  0  0
 19 41  1  0  0  0  0
 20 42  1  0  0  0  0
 20 43  1  0  0  0  0
 20 44  1  0  0  0  0
 21 22  1  0  0  0  0
 21 45  1  0  0  0  0
 22 23  2  0  0  0  0
 22 27  1  0  0  0  0
 23 24  1  0  0  0  0
 23 46  1  0  0  0  0
 24 25  2  0  0  0  0
 24 26  1  0  0  0  0
 25 12  1  0  0  0  0
 25 47  1  0  0  0  0
 26 29  1  0  0  0  0
 27 28  1  0  0  0  0
 28 48  1  0  0  0  0
 28 49  1  0  0  0  0
 28 50  1  0  0  0  0
 29 51  1  0  0  0  0
 29 52  1  0  0  0  0
 29 53  1  0  0  0  0
M  END
>  <Mol_ID>
4119

>  <Formula>
C20H24N6O3

>  <MolWeight>
396.44296

>  <Cat>
S8493

>  <Name>
PD-166866 (PD166866)

>  <Synonyms>
N/A

>  <Target>
FGFR

>  <Form>
free base

>  <CAS>
192705-79-6

>  <URL>
http://selleckchem.com/products/pd-166866.html

$$$$
