PD153035
 OpenBabel08302521223D

 36 38  0  0  0  0  0  0  0  0999 V2000
    0.0546    0.7412   -0.0241 C   0  0  0  0  0  0  0  0  0  0  0  0
    0.0466   -0.6451   -0.0372 C   0  0  0  0  0  0  0  0  0  0  0  0
   -1.2127    1.3509    0.0150 C   0  0  0  0  0  0  0  0  0  0  0  0
    1.3048    1.4068   -0.0029 C   0  0  0  0  0  0  0  0  0  0  0  0
    1.2698   -1.2977   -0.0307 C   0  0  0  0  0  0  0  0  0  0  0  0
   -1.0773   -1.3711   -0.0434 N   0  0  0  0  0  0  0  0  0  0  0  0
   -1.3148    2.7661    0.0548 N   0  0  0  0  0  0  0  0  0  0  0  0
   -2.3526    0.6327    0.0111 N   0  0  0  0  0  0  0  0  0  0  0  0
    2.5564    0.7379   -0.0001 C   0  0  0  0  0  0  0  0  0  0  0  0
    2.5368   -0.6550   -0.0127 C   0  0  0  0  0  0  0  0  0  0  0  0
   -2.2276   -0.6935   -0.0203 C   0  0  0  0  0  0  0  0  0  0  0  0
   -2.3854    3.4850    0.6377 C   0  0  0  0  0  0  0  0  0  0  0  0
    3.5151    1.6980    0.0259 O   0  0  0  0  0  0  0  0  0  0  0  0
    3.4676   -1.6434   -0.0020 O   0  0  0  0  0  0  0  0  0  0  0  0
   -2.7537    4.7415    0.1468 C   0  0  0  0  0  0  0  0  0  0  0  0
   -3.0296    3.0036    1.7901 C   0  0  0  0  0  0  0  0  0  0  0  0
    4.9017    1.4880    0.0154 C   0  0  0  0  0  0  0  0  0  0  0  0
    4.8599   -1.4834   -0.0005 C   0  0  0  0  0  0  0  0  0  0  0  0
   -3.7840    5.4613    0.7634 C   0  0  0  0  0  0  0  0  0  0  0  0
   -4.0531    3.7267    2.4061 C   0  0  0  0  0  0  0  0  0  0  0  0
   -4.4364    4.9578    1.8865 C   0  0  0  0  0  0  0  0  0  0  0  0
   -4.2998    7.1424    0.0673 Br  0  0  0  0  0  0  0  0  0  0  0  0
    1.3101    2.4977    0.0348 H   0  0  0  0  0  0  0  0  0  0  0  0
    1.2443   -2.3891   -0.0297 H   0  0  0  0  0  0  0  0  0  0  0  0
   -1.0004    3.1517   -0.8283 H   0  0  0  0  0  0  0  0  0  0  0  0
   -3.1436   -1.2725   -0.0256 H   0  0  0  0  0  0  0  0  0  0  0  0
   -2.2547    5.1589   -0.7227 H   0  0  0  0  0  0  0  0  0  0  0  0
   -2.7347    2.0524    2.2212 H   0  0  0  0  0  0  0  0  0  0  0  0
    5.2336    0.9847    0.9226 H   0  0  0  0  0  0  0  0  0  0  0  0
    5.2250    1.0102   -0.9090 H   0  0  0  0  0  0  0  0  0  0  0  0
    5.3801    2.4734    0.0290 H   0  0  0  0  0  0  0  0  0  0  0  0
    5.2046   -1.0017   -0.9147 H   0  0  0  0  0  0  0  0  0  0  0  0
    5.2027   -1.0083    0.9175 H   0  0  0  0  0  0  0  0  0  0  0  0
    5.3021   -2.4858   -0.0022 H   0  0  0  0  0  0  0  0  0  0  0  0
   -4.5405    3.3223    3.2881 H   0  0  0  0  0  0  0  0  0  0  0  0
   -5.2359    5.5156    2.3668 H   0  0  0  0  0  0  0  0  0  0  0  0
  1  2  1  0  0  0  0
  1  3  1  0  0  0  0
  1  4  2  0  0  0  0
  2  5  2  0  0  0  0
  2  6  1  0  0  0  0
  3  7  1  0  0  0  0
  3  8  2  0  0  0  0
  4  9  1  0  0  0  0
  4 23  1  0  0  0  0
  5 10  1  0  0  0  0
  5 24  1  0  0  0  0
  6 11  2  0  0  0  0
  7 12  1  0  0  0  0
  7 25  1  0  0  0  0
  8 11  1  0  0  0  0
  9 13  1  0  0  0  0
  9 10  2  0  0  0  0
 10 14  1  0  0  0  0
 11 26  1  0  0  0  0
 12 15  2  0  0  0  0
 12 16  1  0  0  0  0
 13 17  1  0  0  0  0
 14 18  1  0  0  0  0
 15 19  1  0  0  0  0
 15 27  1  0  0  0  0
 16 20  2  0  0  0  0
 16 28  1  0  0  0  0
 17 29  1  0  0  0  0
 17 30  1  0  0  0  0
 17 31  1  0  0  0  0
 18 32  1  0  0  0  0
 18 33  1  0  0  0  0
 18 34  1  0  0  0  0
 19 21  2  0  0  0  0
 19 22  1  0  0  0  0
 20 21  1  0  0  0  0
 20 35  1  0  0  0  0
 21 36  1  0  0  0  0
M  END
>  <Mol_ID>
4720

>  <Formula>
C16H14BrN3O2

>  <MolWeight>
360.20526

>  <Cat>
S6546

>  <Name>
PD153035

>  <Synonyms>
N/A

>  <Target>
EGFR

>  <Form>
Free Base

>  <CAS>
153436-54-5

>  <URL>
http://www.selleck.cn/products/pd153035.html

$$$$
