PD168393.cdx
 OpenBabel08302519513D

 36 38  0  0  0  0  0  0  0  0999 V2000
    2.4721   -0.5648    0.0020 C   0  0  0  0  0  0  0  0  0  0  0  0
    2.4853    0.8281    0.0220 C   0  0  0  0  0  0  0  0  0  0  0  0
    1.2544    1.4864    0.0248 C   0  0  0  0  0  0  0  0  0  0  0  0
    0.0282    0.7585   -0.0086 C   0  0  0  0  0  0  0  0  0  0  0  0
    0.0483   -0.6443   -0.0193 C   0  0  0  0  0  0  0  0  0  0  0  0
    1.2739   -1.2788   -0.0135 C   0  0  0  0  0  0  0  0  0  0  0  0
   -1.2539    1.3272    0.0149 C   0  0  0  0  0  0  0  0  0  0  0  0
   -2.3759    0.5823    0.0114 N   0  0  0  0  0  0  0  0  0  0  0  0
   -2.2206   -0.7434   -0.0088 C   0  0  0  0  0  0  0  0  0  0  0  0
   -1.0559   -1.3948   -0.0261 N   0  0  0  0  0  0  0  0  0  0  0  0
    3.6826    1.5867    0.0439 N   0  0  0  0  0  0  0  0  0  0  0  0
    4.9589    1.0593    0.0344 C   0  0  0  0  0  0  0  0  0  0  0  0
    6.0445    2.0731    0.0617 C   0  0  0  0  0  0  0  0  0  0  0  0
    5.2547   -0.1338    0.0015 O   0  0  0  0  0  0  0  0  0  0  0  0
    7.3144    1.6366    0.0701 C   0  0  0  0  0  0  0  0  0  0  0  0
   -1.3827    2.7405    0.0257 N   0  0  0  0  0  0  0  0  0  0  0  0
   -2.4515    3.4635    0.5962 C   0  0  0  0  0  0  0  0  0  0  0  0
   -2.8048    4.7203    0.0869 C   0  0  0  0  0  0  0  0  0  0  0  0
   -3.8169    5.4750    0.6890 C   0  0  0  0  0  0  0  0  0  0  0  0
   -4.4669    4.9954    1.8257 C   0  0  0  0  0  0  0  0  0  0  0  0
   -4.1008    3.7623    2.3553 C   0  0  0  0  0  0  0  0  0  0  0  0
   -3.1009    3.0047    1.7514 C   0  0  0  0  0  0  0  0  0  0  0  0
   -4.9529    3.1126    3.9134 Br  0  0  0  0  0  0  0  0  0  0  0  0
    3.3816   -1.1524    0.0063 H   0  0  0  0  0  0  0  0  0  0  0  0
    1.2140    2.5738    0.0736 H   0  0  0  0  0  0  0  0  0  0  0  0
    1.3175   -2.3664   -0.0143 H   0  0  0  0  0  0  0  0  0  0  0  0
   -3.1228   -1.3450   -0.0113 H   0  0  0  0  0  0  0  0  0  0  0  0
    3.5805    2.5942    0.0692 H   0  0  0  0  0  0  0  0  0  0  0  0
    5.8097    3.1271    0.0736 H   0  0  0  0  0  0  0  0  0  0  0  0
    8.1585    2.3150    0.0883 H   0  0  0  0  0  0  0  0  0  0  0  0
    7.5442    0.5711    0.0577 H   0  0  0  0  0  0  0  0  0  0  0  0
   -1.0640    3.1179   -0.8593 H   0  0  0  0  0  0  0  0  0  0  0  0
   -2.3046    5.1215   -0.7905 H   0  0  0  0  0  0  0  0  0  0  0  0
   -4.0970    6.4395    0.2728 H   0  0  0  0  0  0  0  0  0  0  0  0
   -5.2484    5.5883    2.2919 H   0  0  0  0  0  0  0  0  0  0  0  0
   -2.8147    2.0507    2.1875 H   0  0  0  0  0  0  0  0  0  0  0  0
  1  2  2  0  0  0  0
  1 24  1  0  0  0  0
  2  3  1  0  0  0  0
  2 11  1  0  0  0  0
  3  4  2  0  0  0  0
  3 25  1  0  0  0  0
  4  5  1  0  0  0  0
  4  7  1  0  0  0  0
  5  6  2  0  0  0  0
  6  1  1  0  0  0  0
  6 26  1  0  0  0  0
  7  8  2  0  0  0  0
  7 16  1  0  0  0  0
  8  9  1  0  0  0  0
  9 10  2  0  0  0  0
  9 27  1  0  0  0  0
 10  5  1  0  0  0  0
 11 12  1  0  0  0  0
 11 28  1  0  0  0  0
 12 13  1  0  0  0  0
 12 14  2  0  0  0  0
 13 15  2  0  0  0  0
 13 29  1  0  0  0  0
 15 30  1  0  0  0  0
 15 31  1  0  0  0  0
 16 17  1  0  0  0  0
 16 32  1  0  0  0  0
 17 18  2  0  0  0  0
 18 19  1  0  0  0  0
 18 33  1  0  0  0  0
 19 20  2  0  0  0  0
 19 34  1  0  0  0  0
 20 21  1  0  0  0  0
 20 35  1  0  0  0  0
 21 22  2  0  0  0  0
 21 23  1  0  0  0  0
 22 17  1  0  0  0  0
 22 36  1  0  0  0  0
M  END
>  <Mol_ID>
1878

>  <Formula>
C17H13BrN4O

>  <MolWeight>
369.21532

>  <Cat>
S7039

>  <Name>
PD168393

>  <Synonyms>
N/A

>  <Target>
EGFR

>  <Form>
free base

>  <CAS>
194423-15-9

>  <URL>
http://selleckchem.com/products/pd168393.html

$$$$
