Pelabresib (CPI-0610)
 OpenBabel08302521303D

 42 45  0  0  1  0  0  0  0  0999 V2000
    2.8400    0.3685    0.2381 O   0  0  0  0  0  0  0  0  0  0  0  0
    3.2363   -1.5056    3.2745 O   0  0  0  0  0  0  0  0  0  0  0  0
    0.6195   -2.2612   -0.1429 N   0  0  0  0  0  0  0  0  0  0  0  0
    2.7931    1.6319   -0.3160 N   0  0  0  0  0  0  0  0  0  0  0  0
    4.8292   -1.3635    1.6738 N   0  0  0  0  0  0  0  0  0  0  0  0
    1.3753   -1.5092    0.8681 C   0  0  2  0  0  0  0  0  0  0  0  0
    1.5823   -0.1244    0.3569 C   0  0  0  0  0  0  0  0  0  0  0  0
    0.6803    0.8128   -0.0876 C   0  0  0  0  0  0  0  0  0  0  0  0
   -0.7485    0.5850   -0.0314 C   0  0  0  0  0  0  0  0  0  0  0  0
   -1.3163   -0.6908   -0.2172 C   0  0  0  0  0  0  0  0  0  0  0  0
    2.6752   -2.2983    1.0649 C   0  0  0  0  0  0  0  0  0  0  0  0
   -0.5155   -1.8929   -0.6320 C   0  0  0  0  0  0  0  0  0  0  0  0
    1.4959    1.8821   -0.5425 C   0  0  0  0  0  0  0  0  0  0  0  0
   -1.5944    1.6652    0.2749 C   0  0  0  0  0  0  0  0  0  0  0  0
   -1.0505   -2.7433   -1.7524 C   0  0  0  0  0  0  0  0  0  0  0  0
   -2.7064   -0.8591   -0.0679 C   0  0  0  0  0  0  0  0  0  0  0  0
    1.1032    3.1310   -1.2351 C   0  0  0  0  0  0  0  0  0  0  0  0
    3.5718   -1.6877    2.1100 C   0  0  0  0  0  0  0  0  0  0  0  0
   -2.9750    1.4913    0.3856 C   0  0  0  0  0  0  0  0  0  0  0  0
   -3.5308    0.2287    0.2190 C   0  0  0  0  0  0  0  0  0  0  0  0
   -0.7814   -4.1181   -1.7579 C   0  0  0  0  0  0  0  0  0  0  0  0
   -1.7381   -2.1712   -2.8314 C   0  0  0  0  0  0  0  0  0  0  0  0
   -1.2041   -4.9126   -2.8255 C   0  0  0  0  0  0  0  0  0  0  0  0
   -2.1640   -2.9703   -3.8944 C   0  0  0  0  0  0  0  0  0  0  0  0
   -1.8935   -4.3381   -3.8928 C   0  0  0  0  0  0  0  0  0  0  0  0
    4.9797   -1.1638    0.6908 H   0  0  0  0  0  0  0  0  0  0  0  0
    5.3991   -0.8453    2.3277 H   0  0  0  0  0  0  0  0  0  0  0  0
    0.8164   -1.4802    1.8123 H   0  0  0  0  0  0  0  0  0  0  0  0
    2.4461   -3.3194    1.3984 H   0  0  0  0  0  0  0  0  0  0  0  0
    3.2133   -2.4037    0.1133 H   0  0  0  0  0  0  0  0  0  0  0  0
   -1.1882    2.6563    0.4613 H   0  0  0  0  0  0  0  0  0  0  0  0
   -3.1625   -1.8406   -0.1842 H   0  0  0  0  0  0  0  0  0  0  0  0
    0.4667    2.9006   -2.0958 H   0  0  0  0  0  0  0  0  0  0  0  0
    0.5555    3.7984   -0.5641 H   0  0  0  0  0  0  0  0  0  0  0  0
    1.9776    3.6757   -1.6068 H   0  0  0  0  0  0  0  0  0  0  0  0
   -3.6118    2.3413    0.6204 H   0  0  0  0  0  0  0  0  0  0  0  0
   -4.6050    0.0891    0.3148 H   0  0  0  0  0  0  0  0  0  0  0  0
   -0.2296   -4.5722   -0.9378 H   0  0  0  0  0  0  0  0  0  0  0  0
   -1.9278   -1.1023   -2.8739 H   0  0  0  0  0  0  0  0  0  0  0  0
   -0.9822   -5.9768   -2.8304 H   0  0  0  0  0  0  0  0  0  0  0  0
   -2.6911   -2.5222   -4.7330 H   0  0  0  0  0  0  0  0  0  0  0  0
   -2.2079   -4.9550   -4.7311 H   0  0  0  0  0  0  0  0  0  0  0  0
  1  4  1  0  0  0  0
  1  7  1  0  0  0  0
  2 18  2  0  0  0  0
  3  6  1  0  0  0  0
  3 12  2  0  0  0  0
  4 13  2  0  0  0  0
  5 18  1  0  0  0  0
  5 26  1  0  0  0  0
  5 27  1  0  0  0  0
  6  7  1  0  0  0  0
  6 28  1  1  0  0  0
  6 11  1  0  0  0  0
  7  8  2  0  0  0  0
  8  9  1  0  0  0  0
  8 13  1  0  0  0  0
  9 10  2  0  0  0  0
  9 14  1  0  0  0  0
 10 12  1  0  0  0  0
 10 16  1  0  0  0  0
 11 18  1  0  0  0  0
 11 29  1  0  0  0  0
 11 30  1  0  0  0  0
 12 15  1  0  0  0  0
 13 17  1  0  0  0  0
 14 19  2  0  0  0  0
 14 31  1  0  0  0  0
 15 21  2  0  0  0  0
 15 22  1  0  0  0  0
 16 20  2  0  0  0  0
 16 32  1  0  0  0  0
 17 33  1  0  0  0  0
 17 34  1  0  0  0  0
 17 35  1  0  0  0  0
 19 20  1  0  0  0  0
 19 36  1  0  0  0  0
 20 37  1  0  0  0  0
 21 23  1  0  0  0  0
 21 38  1  0  0  0  0
 22 24  2  0  0  0  0
 22 39  1  0  0  0  0
 23 25  2  0  0  0  0
 23 40  1  0  0  0  0
 24 25  1  0  0  0  0
 24 41  1  0  0  0  0
 25 42  1  0  0  0  0
M  END
>  <Mol_ID>
5713

>  <Formula>
C20H16ClN3O2

>  <MolWeight>
365.81294

>  <Cat>
S7853

>  <Name>
Pelabresib (CPI-0610)

>  <Synonyms>
N/A

>  <Target>
Epigenetic Reader Domain,NSD

>  <Form>
Free Base

>  <CAS>
1380087-89-7

>  <URL>
http://www.selleckchem.com/products/cpi-0610.html

$$$$
