PENETREX (enoxacin).cdx
 OpenBabel08302521293D

 40 42  0  0  0  0  0  0  0  0999 V2000
    2.4938   -0.6310   -0.0364 C   0  0  0  0  0  0  0  0  0  0  0  0
    2.4365    0.7734   -0.0365 C   0  0  0  0  0  0  0  0  0  0  0  0
    1.2423    1.4189    0.0458 N   0  0  0  0  0  0  0  0  0  0  0  0
    0.0847    0.7001    0.0478 C   0  0  0  0  0  0  0  0  0  0  0  0
    0.1146   -0.7040    0.0339 C   0  0  0  0  0  0  0  0  0  0  0  0
    1.3308   -1.3791    0.0058 C   0  0  0  0  0  0  0  0  0  0  0  0
    3.6016    1.5200   -0.1355 N   0  0  0  0  0  0  0  0  0  0  0  0
    3.6844    2.8467    0.4741 C   0  0  0  0  0  0  0  0  0  0  0  0
    3.8132    3.9725   -0.5722 C   0  0  0  0  0  0  0  0  0  0  0  0
    4.8888    3.7394   -1.5588 N   0  0  0  0  0  0  0  0  0  0  0  0
    4.6487    2.4382   -2.2140 C   0  0  0  0  0  0  0  0  0  0  0  0
    4.5376    1.2411   -1.2341 C   0  0  0  0  0  0  0  0  0  0  0  0
   -1.1765    1.3451    0.0501 N   0  0  0  0  0  0  0  0  0  0  0  0
   -2.3422    0.5933    0.0530 C   0  0  0  0  0  0  0  0  0  0  0  0
   -2.4211   -0.7451    0.0439 C   0  0  0  0  0  0  0  0  0  0  0  0
   -1.1409   -1.4792    0.0279 C   0  0  0  0  0  0  0  0  0  0  0  0
    3.6694   -1.2808   -0.0738 F   0  0  0  0  0  0  0  0  0  0  0  0
   -1.1370   -2.7020   -0.0030 O   0  0  0  0  0  0  0  0  0  0  0  0
   -1.1898    2.8163    0.0103 C   0  0  0  0  0  0  0  0  0  0  0  0
   -1.1934    3.3472   -1.4174 C   0  0  0  0  0  0  0  0  0  0  0  0
   -3.7429   -1.4033    0.0481 C   0  0  0  0  0  0  0  0  0  0  0  0
   -3.7027   -2.7534    0.0352 O   0  0  0  0  0  0  0  0  0  0  0  0
   -4.8021   -0.7830    0.0614 O   0  0  0  0  0  0  0  0  0  0  0  0
    1.3820   -2.4636   -0.0024 H   0  0  0  0  0  0  0  0  0  0  0  0
    2.8455    3.0561    1.1490 H   0  0  0  0  0  0  0  0  0  0  0  0
    4.5864    2.8514    1.0998 H   0  0  0  0  0  0  0  0  0  0  0  0
    2.8633    4.1085   -1.1023 H   0  0  0  0  0  0  0  0  0  0  0  0
    4.0207    4.9163   -0.0541 H   0  0  0  0  0  0  0  0  0  0  0  0
    5.7756    3.6849   -1.0560 H   0  0  0  0  0  0  0  0  0  0  0  0
    3.7345    2.5117   -2.8167 H   0  0  0  0  0  0  0  0  0  0  0  0
    5.4689    2.2506   -2.9163 H   0  0  0  0  0  0  0  0  0  0  0  0
    5.5243    1.0469   -0.7941 H   0  0  0  0  0  0  0  0  0  0  0  0
    4.2620    0.3493   -1.8091 H   0  0  0  0  0  0  0  0  0  0  0  0
   -3.2493    1.1962    0.0743 H   0  0  0  0  0  0  0  0  0  0  0  0
   -2.0952    3.1758    0.5179 H   0  0  0  0  0  0  0  0  0  0  0  0
   -0.3526    3.2540    0.5640 H   0  0  0  0  0  0  0  0  0  0  0  0
   -2.0805    3.0181   -1.9695 H   0  0  0  0  0  0  0  0  0  0  0  0
   -1.1925    4.4420   -1.4105 H   0  0  0  0  0  0  0  0  0  0  0  0
   -0.3090    3.0124   -1.9678 H   0  0  0  0  0  0  0  0  0  0  0  0
   -2.7881   -3.1297    0.0192 H   0  0  0  0  0  0  0  0  0  0  0  0
  1  2  2  0  0  0  0
  1 17  1  0  0  0  0
  2  3  1  0  0  0  0
  2  7  1  0  0  0  0
  3  4  2  0  0  0  0
  4  5  1  0  0  0  0
  4 13  1  0  0  0  0
  5  6  2  0  0  0  0
  6  1  1  0  0  0  0
  6 24  1  0  0  0  0
  7  8  1  0  0  0  0
  8  9  1  0  0  0  0
  8 25  1  0  0  0  0
  8 26  1  0  0  0  0
  9 10  1  0  0  0  0
  9 27  1  0  0  0  0
  9 28  1  0  0  0  0
 10 11  1  0  0  0  0
 10 29  1  0  0  0  0
 11 12  1  0  0  0  0
 11 30  1  0  0  0  0
 11 31  1  0  0  0  0
 12  7  1  0  0  0  0
 12 32  1  0  0  0  0
 12 33  1  0  0  0  0
 13 14  1  0  0  0  0
 13 19  1  0  0  0  0
 14 15  2  0  0  0  0
 14 34  1  0  0  0  0
 15 16  1  0  0  0  0
 15 21  1  0  0  0  0
 16  5  1  0  0  0  0
 16 18  2  0  0  0  0
 19 20  1  0  0  0  0
 19 35  1  0  0  0  0
 19 36  1  0  0  0  0
 20 37  1  0  0  0  0
 20 38  1  0  0  0  0
 20 39  1  0  0  0  0
 21 22  1  0  0  0  0
 21 23  2  0  0  0  0
 22 40  1  0  0  0  0
M  END
>  <Mol_ID>
523

>  <Formula>
C15H17FN4O3

>  <MolWeight>
320.3188832

>  <Cat>
S1756

>  <Name>
Enoxacin

>  <Synonyms>
AT-2266, CI919, Pd107779, NSC 629661

>  <Target>
Topoisomerase

>  <Form>
free base

>  <CAS>
74011-58-8

>  <URL>
http://selleckchem.com/products/Enoxacin(Penetrex).html

$$$$
