Pennogenin
 OpenBabel08302521543D

 73 78  0  0  1  0  0  0  0  0999 V2000
    0.7538   -4.0262   -2.2151 O   0  0  0  0  0  0  0  0  0  0  0  0
   -0.7385   -2.3044    0.8746 C   0  0  0  0  0  0  0  0  0  0  0  0
    0.9288   -1.4296   -3.0505 C   0  0  0  0  0  0  0  0  0  0  0  0
   -3.6282   -6.6769    2.2420 C   0  0  0  0  0  0  0  0  0  0  0  0
    5.7706   -0.0616   -0.2182 C   0  0  0  0  0  0  0  0  0  0  0  0
   -3.3956  -10.8387    1.0416 O   0  0  0  0  0  0  0  0  0  0  0  0
    0.7702   -3.1205   -1.1081 C   0  0  1  0  0  0  0  0  0  0  0  0
   -0.4482   -3.4172   -0.1788 C   0  0  1  0  0  0  0  0  0  0  0  0
    1.9828   -3.4024   -0.1858 C   0  0  2  0  0  0  0  0  0  0  0  0
    0.9289   -1.6659   -1.5429 C   0  0  1  0  0  0  0  0  0  0  0  0
    0.1103   -4.7049    0.4981 C   0  0  1  0  0  0  0  0  0  0  0  0
   -1.7775   -3.7013   -0.9271 C   0  0  0  0  0  0  0  0  0  0  0  0
    1.5182   -4.3385    0.9388 C   0  0  0  0  0  0  0  0  0  0  0  0
    2.3627   -2.1259    0.3135 O   0  0  0  0  0  0  0  0  0  0  0  0
    2.2086   -1.2252   -0.8024 C   0  0  2  0  0  0  0  0  0  0  0  0
   -0.9175   -5.3040    1.4553 C   0  0  1  0  0  0  0  0  0  0  0  0
   -2.7786   -4.5191   -0.0793 C   0  0  0  0  0  0  0  0  0  0  0  0
    2.0742    0.1867   -0.2188 C   0  0  0  0  0  0  0  0  0  0  0  0
    3.3514   -1.4197   -1.6373 O   0  0  0  0  0  0  0  0  0  0  0  0
   -2.0458   -5.7564    0.4638 C   0  0  2  0  0  0  0  0  0  0  0  0
   -0.3915   -6.3996    2.4010 C   0  0  0  0  0  0  0  0  0  0  0  0
    3.4240    0.6656    0.2943 C   0  0  0  0  0  0  0  0  0  0  0  0
    4.0141   -0.2253   -2.0157 C   0  0  0  0  0  0  0  0  0  0  0  0
   -2.8420   -6.9777    0.9471 C   0  0  1  0  0  0  0  0  0  0  0  0
   -0.6437   -7.7667    1.8698 C   0  0  0  0  0  0  0  0  0  0  0  0
    4.5004    0.5632   -0.7964 C   0  0  2  0  0  0  0  0  0  0  0  0
   -1.7520   -8.0380    1.1528 C   0  0  0  0  0  0  0  0  0  0  0  0
   -3.8144   -7.4255   -0.1771 C   0  0  0  0  0  0  0  0  0  0  0  0
   -1.7521   -9.2524    0.2544 C   0  0  0  0  0  0  0  0  0  0  0  0
   -4.2868   -8.8617   -0.0002 C   0  0  0  0  0  0  0  0  0  0  0  0
   -3.1324   -9.8663    0.0326 C   0  0  2  0  0  0  0  0  0  0  0  0
    1.6692   -4.2629   -2.4441 H   0  0  0  0  0  0  0  0  0  0  0  0
   -1.5252   -2.5882    1.5784 H   0  0  0  0  0  0  0  0  0  0  0  0
   -1.1085   -1.3885    0.4051 H   0  0  0  0  0  0  0  0  0  0  0  0
    0.1357   -2.0432    1.4750 H   0  0  0  0  0  0  0  0  0  0  0  0
    1.0067   -0.3601   -3.2686 H   0  0  0  0  0  0  0  0  0  0  0  0
   -0.0096   -1.7849   -3.4916 H   0  0  0  0  0  0  0  0  0  0  0  0
    1.7520   -1.9445   -3.5542 H   0  0  0  0  0  0  0  0  0  0  0  0
   -4.6998   -6.5523    2.0489 H   0  0  0  0  0  0  0  0  0  0  0  0
   -3.5237   -7.4783    2.9814 H   0  0  0  0  0  0  0  0  0  0  0  0
   -3.3012   -5.7472    2.7215 H   0  0  0  0  0  0  0  0  0  0  0  0
    5.5893   -1.0818    0.1380 H   0  0  0  0  0  0  0  0  0  0  0  0
    6.5605   -0.1031   -0.9748 H   0  0  0  0  0  0  0  0  0  0  0  0
    6.1420    0.5327    0.6231 H   0  0  0  0  0  0  0  0  0  0  0  0
   -3.2558  -10.3973    1.8982 H   0  0  0  0  0  0  0  0  0  0  0  0
    2.8322   -3.8450   -0.7213 H   0  0  0  0  0  0  0  0  0  0  0  0
    0.0898   -1.0766   -1.1676 H   0  0  0  0  0  0  0  0  0  0  0  0
    0.2879   -5.4680   -0.2787 H   0  0  0  0  0  0  0  0  0  0  0  0
   -2.2428   -2.7644   -1.2559 H   0  0  0  0  0  0  0  0  0  0  0  0
   -1.5870   -4.2744   -1.8428 H   0  0  0  0  0  0  0  0  0  0  0  0
    2.1451   -5.2390    0.9581 H   0  0  0  0  0  0  0  0  0  0  0  0
    1.5598   -3.8753    1.9271 H   0  0  0  0  0  0  0  0  0  0  0  0
   -1.3015   -4.5280    2.1250 H   0  0  0  0  0  0  0  0  0  0  0  0
   -3.6183   -4.7976   -0.7233 H   0  0  0  0  0  0  0  0  0  0  0  0
   -3.1908   -3.9142    0.7352 H   0  0  0  0  0  0  0  0  0  0  0  0
    1.7081    0.8859   -0.9793 H   0  0  0  0  0  0  0  0  0  0  0  0
    1.3505    0.1953    0.6063 H   0  0  0  0  0  0  0  0  0  0  0  0
   -1.5501   -6.1588   -0.4370 H   0  0  0  0  0  0  0  0  0  0  0  0
    0.6724   -6.2560    2.6103 H   0  0  0  0  0  0  0  0  0  0  0  0
   -0.8928   -6.3169    3.3745 H   0  0  0  0  0  0  0  0  0  0  0  0
    3.6986    0.0736    1.1773 H   0  0  0  0  0  0  0  0  0  0  0  0
    3.3393    1.7022    0.6399 H   0  0  0  0  0  0  0  0  0  0  0  0
    3.3356    0.3762   -2.6313 H   0  0  0  0  0  0  0  0  0  0  0  0
    4.8541   -0.5044   -2.6610 H   0  0  0  0  0  0  0  0  0  0  0  0
    0.1621   -8.4972    1.9455 H   0  0  0  0  0  0  0  0  0  0  0  0
    4.7548    1.5738   -1.1382 H   0  0  0  0  0  0  0  0  0  0  0  0
   -3.3314   -7.3379   -1.1606 H   0  0  0  0  0  0  0  0  0  0  0  0
   -4.6891   -6.7635   -0.2156 H   0  0  0  0  0  0  0  0  0  0  0  0
   -1.0544  -10.0135    0.6231 H   0  0  0  0  0  0  0  0  0  0  0  0
   -1.3631   -8.9109   -0.7165 H   0  0  0  0  0  0  0  0  0  0  0  0
   -4.9520   -9.1156   -0.8357 H   0  0  0  0  0  0  0  0  0  0  0  0
   -4.9003   -8.9408    0.9044 H   0  0  0  0  0  0  0  0  0  0  0  0
   -3.1040  -10.4080   -0.9212 H   0  0  0  0  0  0  0  0  0  0  0  0
  1 32  1  0  0  0  0
  2 33  1  0  0  0  0
  2 34  1  0  0  0  0
  2 35  1  0  0  0  0
  3 36  1  0  0  0  0
  3 37  1  0  0  0  0
  3 38  1  0  0  0  0
  4 39  1  0  0  0  0
  4 40  1  0  0  0  0
  4 41  1  0  0  0  0
  5 42  1  0  0  0  0
  5 43  1  0  0  0  0
  5 44  1  0  0  0  0
  6 45  1  0  0  0  0
  7  1  1  6  0  0  0
  7  8  1  0  0  0  0
  7  9  1  0  0  0  0
  7 10  1  0  0  0  0
  8  2  1  1  0  0  0
  8 11  1  0  0  0  0
  8 12  1  0  0  0  0
  9 13  1  0  0  0  0
  9 14  1  0  0  0  0
  9 46  1  6  0  0  0
 10  3  1  0  0  0  0
 10 15  1  0  0  0  0
 10 47  1  1  0  0  0
 11 13  1  0  0  0  0
 11 16  1  0  0  0  0
 11 48  1  6  0  0  0
 12 17  1  0  0  0  0
 12 49  1  0  0  0  0
 12 50  1  0  0  0  0
 13 51  1  0  0  0  0
 13 52  1  0  0  0  0
 15 14  1  1  0  0  0
 15 18  1  0  0  0  0
 15 19  1  0  0  0  0
 16 20  1  0  0  0  0
 16 21  1  0  0  0  0
 16 53  1  1  0  0  0
 17 54  1  0  0  0  0
 17 55  1  0  0  0  0
 18 22  1  0  0  0  0
 18 56  1  0  0  0  0
 18 57  1  0  0  0  0
 19 23  1  0  0  0  0
 20 17  1  0  0  0  0
 20 24  1  0  0  0  0
 20 58  1  6  0  0  0
 21 25  1  0  0  0  0
 21 59  1  0  0  0  0
 21 60  1  0  0  0  0
 22 26  1  0  0  0  0
 22 61  1  0  0  0  0
 22 62  1  0  0  0  0
 23 26  1  0  0  0  0
 23 63  1  0  0  0  0
 23 64  1  0  0  0  0
 24  4  1  1  0  0  0
 24 27  1  0  0  0  0
 24 28  1  0  0  0  0
 25 27  2  0  0  0  0
 25 65  1  0  0  0  0
 26  5  1  0  0  0  0
 26 66  1  6  0  0  0
 27 29  1  0  0  0  0
 28 30  1  0  0  0  0
 28 67  1  0  0  0  0
 28 68  1  0  0  0  0
 29 31  1  0  0  0  0
 29 69  1  0  0  0  0
 29 70  1  0  0  0  0
 30 31  1  0  0  0  0
 30 71  1  0  0  0  0
 30 72  1  0  0  0  0
 31  6  1  0  0  0  0
 31 73  1  6  0  0  0
M  END
>  <Mol_ID>
9955

>  <Formula>
C27H42O4

>  <MolWeight>
430.61998

>  <Cat>
E5204

>  <Name>
Pennogenin

>  <Synonyms>
N/A

>  <Target>
ROS

>  <Form>
free base

>  <CAS>
507-89-1

>  <URL>
https://www.selleckchem.com/products/pennogenin.html

$$$$
