¦Ø-Pentadecalactone
 OpenBabel08302521363D

 45 45  0  0  0  0  0  0  0  0999 V2000
    1.0293   -0.2359    0.1158 O   0  0  0  0  0  0  0  0  0  0  0  0
    2.2454   -0.1502   -0.0198 C   0  0  0  0  0  0  0  0  0  0  0  0
    3.0076    1.1467   -0.0443 C   0  0  0  0  0  0  0  0  0  0  0  0
    3.1158   -1.1931    0.0858 O   0  0  0  0  0  0  0  0  0  0  0  0
    3.1224    1.6251    1.4025 C   0  0  0  0  0  0  0  0  0  0  0  0
    2.8303   -2.0137    1.2227 C   0  0  0  0  0  0  0  0  0  0  0  0
    3.9612    2.8862    1.5489 C   0  0  0  0  0  0  0  0  0  0  0  0
    3.7957   -3.1883    1.2345 C   0  0  0  0  0  0  0  0  0  0  0  0
    4.1249    3.3102    3.0159 C   0  0  0  0  0  0  0  0  0  0  0  0
    3.8922   -3.8496    2.6138 C   0  0  0  0  0  0  0  0  0  0  0  0
    5.3116    2.6425    3.7252 C   0  0  0  0  0  0  0  0  0  0  0  0
    5.1051   -3.3828    3.4314 C   0  0  0  0  0  0  0  0  0  0  0  0
    4.9108    1.4485    4.5952 C   0  0  0  0  0  0  0  0  0  0  0  0
    4.8095   -2.1762    4.3251 C   0  0  0  0  0  0  0  0  0  0  0  0
    6.1389    0.8124    5.2504 C   0  0  0  0  0  0  0  0  0  0  0  0
    6.0533   -1.7497    5.1075 C   0  0  0  0  0  0  0  0  0  0  0  0
    5.8334   -0.5037    5.9766 C   0  0  0  0  0  0  0  0  0  0  0  0
    3.9947    0.9839   -0.4931 H   0  0  0  0  0  0  0  0  0  0  0  0
    2.4759    1.8645   -0.6750 H   0  0  0  0  0  0  0  0  0  0  0  0
    2.1162    1.8023    1.8084 H   0  0  0  0  0  0  0  0  0  0  0  0
    3.5609    0.8263    2.0060 H   0  0  0  0  0  0  0  0  0  0  0  0
    1.7948   -2.3674    1.2077 H   0  0  0  0  0  0  0  0  0  0  0  0
    2.9807   -1.3947    2.1118 H   0  0  0  0  0  0  0  0  0  0  0  0
    4.9397    2.7500    1.0777 H   0  0  0  0  0  0  0  0  0  0  0  0
    3.4598    3.6975    1.0044 H   0  0  0  0  0  0  0  0  0  0  0  0
    4.7848   -2.8896    0.8648 H   0  0  0  0  0  0  0  0  0  0  0  0
    3.4270   -3.9247    0.5090 H   0  0  0  0  0  0  0  0  0  0  0  0
    4.3072    4.3910    3.0205 H   0  0  0  0  0  0  0  0  0  0  0  0
    3.1937    3.1518    3.5743 H   0  0  0  0  0  0  0  0  0  0  0  0
    4.0015   -4.9294    2.4542 H   0  0  0  0  0  0  0  0  0  0  0  0
    2.9637   -3.7130    3.1812 H   0  0  0  0  0  0  0  0  0  0  0  0
    6.0707    2.3358    2.9957 H   0  0  0  0  0  0  0  0  0  0  0  0
    5.7886    3.3887    4.3730 H   0  0  0  0  0  0  0  0  0  0  0  0
    5.9484   -3.1571    2.7673 H   0  0  0  0  0  0  0  0  0  0  0  0
    5.4286   -4.2130    4.0708 H   0  0  0  0  0  0  0  0  0  0  0  0
    4.2167    1.7792    5.3777 H   0  0  0  0  0  0  0  0  0  0  0  0
    4.3798    0.7149    3.9913 H   0  0  0  0  0  0  0  0  0  0  0  0
    4.0097   -2.4316    5.0313 H   0  0  0  0  0  0  0  0  0  0  0  0
    4.4541   -1.3497    3.7118 H   0  0  0  0  0  0  0  0  0  0  0  0
    6.9323    0.6596    4.5088 H   0  0  0  0  0  0  0  0  0  0  0  0
    6.5385    1.5260    5.9828 H   0  0  0  0  0  0  0  0  0  0  0  0
    6.8945   -1.5900    4.4218 H   0  0  0  0  0  0  0  0  0  0  0  0
    6.3461   -2.5787    5.7642 H   0  0  0  0  0  0  0  0  0  0  0  0
    6.5277   -0.5752    6.8236 H   0  0  0  0  0  0  0  0  0  0  0  0
    4.8240   -0.4945    6.4048 H   0  0  0  0  0  0  0  0  0  0  0  0
  1  2  2  0  0  0  0
  2  3  1  0  0  0  0
  2  4  1  0  0  0  0
  3  5  1  0  0  0  0
  3 18  1  0  0  0  0
  3 19  1  0  0  0  0
  4  6  1  0  0  0  0
  5  7  1  0  0  0  0
  5 20  1  0  0  0  0
  5 21  1  0  0  0  0
  6  8  1  0  0  0  0
  6 22  1  0  0  0  0
  6 23  1  0  0  0  0
  7  9  1  0  0  0  0
  7 24  1  0  0  0  0
  7 25  1  0  0  0  0
  8 10  1  0  0  0  0
  8 26  1  0  0  0  0
  8 27  1  0  0  0  0
  9 11  1  0  0  0  0
  9 28  1  0  0  0  0
  9 29  1  0  0  0  0
 10 12  1  0  0  0  0
 10 30  1  0  0  0  0
 10 31  1  0  0  0  0
 11 13  1  0  0  0  0
 11 32  1  0  0  0  0
 11 33  1  0  0  0  0
 12 14  1  0  0  0  0
 12 34  1  0  0  0  0
 12 35  1  0  0  0  0
 13 15  1  0  0  0  0
 13 36  1  0  0  0  0
 13 37  1  0  0  0  0
 14 16  1  0  0  0  0
 14 38  1  0  0  0  0
 14 39  1  0  0  0  0
 15 17  1  0  0  0  0
 15 40  1  0  0  0  0
 15 41  1  0  0  0  0
 16 17  1  0  0  0  0
 16 42  1  0  0  0  0
 16 43  1  0  0  0  0
 17 44  1  0  0  0  0
 17 45  1  0  0  0  0
M  END
>  <Mol_ID>
7229

>  <Formula>
C15H28O2

>  <MolWeight>
240.38162

>  <Cat>
E4236

>  <Name>
¦Ø-Pentadecalactone

>  <Synonyms>
¦Ø-Pentadecalactone

>  <Target>
Others

>  <Form>
free base

>  <CAS>
106-02-5

>  <URL>
https://www.selleckchem.com/products/omega-pentadecalactone.html

$$$$
