Perillaldehyde
 OpenBabel08302521243D

 25 25  0  0  0  0  0  0  0  0999 V2000
   -0.2699    1.3810    0.3461 C   0  0  0  0  0  0  0  0  0  0  0  0
    1.1238    0.9759   -0.1466 C   0  0  0  0  0  0  0  0  0  0  0  0
    1.3513   -0.5064   -0.0873 C   0  0  0  0  0  0  0  0  0  0  0  0
    0.3603   -1.4045    0.0322 C   0  0  0  0  0  0  0  0  0  0  0  0
   -1.0897   -1.0148    0.1107 C   0  0  0  0  0  0  0  0  0  0  0  0
   -1.3649    0.4667   -0.2313 C   0  0  1  0  0  0  0  0  0  0  0  0
    2.7523   -0.9979   -0.1310 C   0  0  0  0  0  0  0  0  0  0  0  0
    3.7126   -0.2450   -0.2441 O   0  0  0  0  0  0  0  0  0  0  0  0
   -2.7605    0.9136    0.1945 C   0  0  0  0  0  0  0  0  0  0  0  0
   -3.6542    1.3544   -0.7072 C   0  0  0  0  0  0  0  0  0  0  0  0
   -3.1172    0.8673    1.6586 C   0  0  0  0  0  0  0  0  0  0  0  0
   -0.4585    2.4253    0.0677 H   0  0  0  0  0  0  0  0  0  0  0  0
   -0.2797    1.3392    1.4425 H   0  0  0  0  0  0  0  0  0  0  0  0
    1.2583    1.3101   -1.1823 H   0  0  0  0  0  0  0  0  0  0  0  0
    1.8679    1.5031    0.4622 H   0  0  0  0  0  0  0  0  0  0  0  0
    0.5702   -2.4699    0.0948 H   0  0  0  0  0  0  0  0  0  0  0  0
   -1.4282   -1.2600    1.1233 H   0  0  0  0  0  0  0  0  0  0  0  0
   -1.6651   -1.6496   -0.5746 H   0  0  0  0  0  0  0  0  0  0  0  0
   -1.2961    0.5535   -1.3267 H   0  0  0  0  0  0  0  0  0  0  0  0
    2.8824   -2.0892   -0.0519 H   0  0  0  0  0  0  0  0  0  0  0  0
   -4.6472    1.6820   -0.4115 H   0  0  0  0  0  0  0  0  0  0  0  0
   -3.4211    1.4089   -1.7667 H   0  0  0  0  0  0  0  0  0  0  0  0
   -3.0797   -0.1568    2.0407 H   0  0  0  0  0  0  0  0  0  0  0  0
   -2.4339    1.4862    2.2471 H   0  0  0  0  0  0  0  0  0  0  0  0
   -4.1307    1.2392    1.8439 H   0  0  0  0  0  0  0  0  0  0  0  0
  1  2  1  0  0  0  0
  1 12  1  0  0  0  0
  1 13  1  0  0  0  0
  2  3  1  0  0  0  0
  2 14  1  0  0  0  0
  2 15  1  0  0  0  0
  3  4  2  0  0  0  0
  3  7  1  0  0  0  0
  4  5  1  0  0  0  0
  4 16  1  0  0  0  0
  5  6  1  0  0  0  0
  5 17  1  0  0  0  0
  5 18  1  0  0  0  0
  6  1  1  0  0  0  0
  6  9  1  0  0  0  0
  6 19  1  6  0  0  0
  7  8  2  0  0  0  0
  7 20  1  0  0  0  0
  9 10  2  0  0  0  0
  9 11  1  0  0  0  0
 10 21  1  0  0  0  0
 10 22  1  0  0  0  0
 11 23  1  0  0  0  0
 11 24  1  0  0  0  0
 11 25  1  0  0  0  0
M  END
>  <Mol_ID>
5103

>  <Formula>
C10H14O

>  <MolWeight>
150.21756

>  <Cat>
S3205

>  <Name>
Perillaldehyde

>  <Synonyms>
Perilladehyde, Perillal, PAE, PA

>  <Target>
AhR,CCR,Nrf2,ROS

>  <Form>
free base

>  <CAS>
18031-40-8

>  <URL>
http://www.selleckchem.com/products/perillaldehyde.html

$$$$
