PERPHENAZINE (perphenazine).cdx
 OpenBabel08302519503D

 53 56  0  0  0  0  0  0  0  0999 V2000
    1.2366   -6.4083    1.2910 C   0  0  0  0  0  0  0  0  0  0  0  0
    2.1974   -6.8290    2.2035 C   0  0  0  0  0  0  0  0  0  0  0  0
    2.9151   -5.8840    2.9333 C   0  0  0  0  0  0  0  0  0  0  0  0
    2.6856   -4.5126    2.7423 C   0  0  0  0  0  0  0  0  0  0  0  0
    1.7048   -4.0687    1.8323 C   0  0  0  0  0  0  0  0  0  0  0  0
    0.9907   -5.0435    1.1116 C   0  0  0  0  0  0  0  0  0  0  0  0
    3.6693   -3.3685    3.6964 S   0  0  0  0  0  0  0  0  0  0  0  0
    3.6078   -1.9339    2.6359 C   0  0  0  0  0  0  0  0  0  0  0  0
    2.5599   -1.7300    1.7141 C   0  0  0  0  0  0  0  0  0  0  0  0
    1.5293   -2.6931    1.5361 N   0  0  0  0  0  0  0  0  0  0  0  0
    4.6336   -0.9853    2.7647 C   0  0  0  0  0  0  0  0  0  0  0  0
    4.6496    0.1491    1.9561 C   0  0  0  0  0  0  0  0  0  0  0  0
    3.6394    0.3494    1.0216 C   0  0  0  0  0  0  0  0  0  0  0  0
    2.6020   -0.5787    0.9089 C   0  0  0  0  0  0  0  0  0  0  0  0
    0.1370   -2.1728    1.6063 C   0  0  0  0  0  0  0  0  0  0  0  0
   -0.1745   -1.5356    2.9732 C   0  0  0  0  0  0  0  0  0  0  0  0
   -1.6397   -1.0683    3.0839 C   0  0  0  0  0  0  0  0  0  0  0  0
   -1.9417   -0.4395    4.3876 N   0  0  0  0  0  0  0  0  0  0  0  0
   -1.8450   -1.3773    5.5243 C   0  0  0  0  0  0  0  0  0  0  0  0
   -2.9781   -2.4329    5.5693 C   0  0  0  0  0  0  0  0  0  0  0  0
   -4.3492   -1.8647    5.6107 N   0  0  0  0  0  0  0  0  0  0  0  0
   -4.4714   -0.8313    4.5564 C   0  0  0  0  0  0  0  0  0  0  0  0
   -3.2917    0.1683    4.4201 C   0  0  0  0  0  0  0  0  0  0  0  0
   -4.6436   -1.3832    6.9800 C   0  0  0  0  0  0  0  0  0  0  0  0
   -6.0825   -0.8861    7.1938 C   0  0  0  0  0  0  0  0  0  0  0  0
   -7.0228   -1.8633    6.7584 O   0  0  0  0  0  0  0  0  0  0  0  0
    0.6949   -7.1397    0.6965 H   0  0  0  0  0  0  0  0  0  0  0  0
    2.4020   -7.8882    2.3353 H   0  0  0  0  0  0  0  0  0  0  0  0
    3.6725   -6.2218    3.6372 H   0  0  0  0  0  0  0  0  0  0  0  0
    0.2775   -4.7444    0.3482 H   0  0  0  0  0  0  0  0  0  0  0  0
    5.4325   -1.1338    3.4881 H   0  0  0  0  0  0  0  0  0  0  0  0
    5.4564    0.8711    2.0484 H   0  0  0  0  0  0  0  0  0  0  0  0
    3.6622    1.2130    0.3682 H   0  0  0  0  0  0  0  0  0  0  0  0
    1.8469   -0.4235    0.1416 H   0  0  0  0  0  0  0  0  0  0  0  0
   -0.0363   -1.4478    0.8030 H   0  0  0  0  0  0  0  0  0  0  0  0
   -0.5926   -2.9729    1.4297 H   0  0  0  0  0  0  0  0  0  0  0  0
    0.0571   -2.2745    3.7465 H   0  0  0  0  0  0  0  0  0  0  0  0
    0.4813   -0.6740    3.1467 H   0  0  0  0  0  0  0  0  0  0  0  0
   -1.8062   -0.3236    2.2926 H   0  0  0  0  0  0  0  0  0  0  0  0
   -2.3147   -1.9050    2.8711 H   0  0  0  0  0  0  0  0  0  0  0  0
   -0.8728   -1.8773    5.5490 H   0  0  0  0  0  0  0  0  0  0  0  0
   -1.8622   -0.7850    6.4483 H   0  0  0  0  0  0  0  0  0  0  0  0
   -2.9049   -3.0826    4.6887 H   0  0  0  0  0  0  0  0  0  0  0  0
   -2.8156   -3.0976    6.4265 H   0  0  0  0  0  0  0  0  0  0  0  0
   -4.5746   -1.3606    3.6001 H   0  0  0  0  0  0  0  0  0  0  0  0
   -5.4065   -0.2708    4.6620 H   0  0  0  0  0  0  0  0  0  0  0  0
   -3.3259    0.8596    5.2730 H   0  0  0  0  0  0  0  0  0  0  0  0
   -3.4454    0.7971    3.5339 H   0  0  0  0  0  0  0  0  0  0  0  0
   -4.5223   -2.2455    7.6508 H   0  0  0  0  0  0  0  0  0  0  0  0
   -3.9432   -0.6104    7.3093 H   0  0  0  0  0  0  0  0  0  0  0  0
   -6.2581   -0.7005    8.2585 H   0  0  0  0  0  0  0  0  0  0  0  0
   -6.2731    0.0479    6.6582 H   0  0  0  0  0  0  0  0  0  0  0  0
   -6.5962   -2.3140    6.0025 H   0  0  0  0  0  0  0  0  0  0  0  0
  1  2  2  0  0  0  0
  1 27  1  0  0  0  0
  2  3  1  0  0  0  0
  2 28  1  0  0  0  0
  3  4  2  0  0  0  0
  3 29  1  0  0  0  0
  4  5  1  0  0  0  0
  4  7  1  0  0  0  0
  5  6  2  0  0  0  0
  6  1  1  0  0  0  0
  6 30  1  0  0  0  0
  7  8  1  0  0  0  0
  8  9  2  0  0  0  0
  8 11  1  0  0  0  0
  9 10  1  0  0  0  0
 10  5  1  0  0  0  0
 10 15  1  0  0  0  0
 11 12  2  0  0  0  0
 11 31  1  0  0  0  0
 12 13  1  0  0  0  0
 12 32  1  0  0  0  0
 13 14  2  0  0  0  0
 13 33  1  0  0  0  0
 14  9  1  0  0  0  0
 14 34  1  0  0  0  0
 15 16  1  0  0  0  0
 15 35  1  0  0  0  0
 15 36  1  0  0  0  0
 16 17  1  0  0  0  0
 16 37  1  0  0  0  0
 16 38  1  0  0  0  0
 17 18  1  0  0  0  0
 17 39  1  0  0  0  0
 17 40  1  0  0  0  0
 18 19  1  0  0  0  0
 19 20  1  0  0  0  0
 19 41  1  0  0  0  0
 19 42  1  0  0  0  0
 20 21  1  0  0  0  0
 20 43  1  0  0  0  0
 20 44  1  0  0  0  0
 21 22  1  0  0  0  0
 21 24  1  0  0  0  0
 22 23  1  0  0  0  0
 22 45  1  0  0  0  0
 22 46  1  0  0  0  0
 23 18  1  0  0  0  0
 23 47  1  0  0  0  0
 23 48  1  0  0  0  0
 24 25  1  0  0  0  0
 24 49  1  0  0  0  0
 24 50  1  0  0  0  0
 25 26  1  0  0  0  0
 25 51  1  0  0  0  0
 25 52  1  0  0  0  0
 26 53  1  0  0  0  0
M  END
>  <Mol_ID>
1612

>  <Formula>
C21H26ClN3OS

>  <MolWeight>
403.96864

>  <Cat>
S4731

>  <Name>
Perphenazine

>  <Synonyms>
Perphenazin, Trilafon, Etaperazine

>  <Target>
Dopamine Receptor

>  <Form>
free base

>  <CAS>
58-39-9

>  <URL>
http://selleckchem.com/products/perphenazine.html

$$$$
