Pevonedistat (MLN4924)
 OpenBabel08302521353D

 56 60  0  0  0  0  0  0  0  0999 V2000
   -8.1389   -6.2703   -1.0443 N   0  0  0  0  0  0  0  0  0  0  0  0
   -3.3464   -2.2103    5.5304 C   0  0  0  0  0  0  0  0  0  0  0  0
   -3.9328   -1.2102    6.3481 O   0  0  0  0  0  0  0  0  0  0  0  0
   -2.9510   -0.3568    7.3069 S   0  0  0  0  0  0  0  0  0  0  0  0
   -3.9755    0.7064    8.0905 N   0  0  0  0  0  0  0  0  0  0  0  0
   -2.3955   -1.2150    8.3199 O   0  0  0  0  0  0  0  0  0  0  0  0
   -2.1135    0.4715    6.4615 O   0  0  0  0  0  0  0  0  0  0  0  0
   -5.3641   -0.6523    4.0527 O   0  0  0  0  0  0  0  0  0  0  0  0
   -4.6177   -4.1792    1.3043 N   0  0  0  0  0  0  0  0  0  0  0  0
   -5.7932   -4.8776    1.4746 C   0  0  0  0  0  0  0  0  0  0  0  0
   -4.3400   -4.1065   -0.0485 C   0  0  0  0  0  0  0  0  0  0  0  0
   -6.2885   -5.2290    0.2174 C   0  0  0  0  0  0  0  0  0  0  0  0
   -6.3762   -5.1566    2.6501 N   0  0  0  0  0  0  0  0  0  0  0  0
   -5.3507   -4.7382   -0.7367 C   0  0  0  0  0  0  0  0  0  0  0  0
   -7.5228   -5.9160    0.1622 C   0  0  0  0  0  0  0  0  0  0  0  0
   -7.5183   -5.8456    2.4883 C   0  0  0  0  0  0  0  0  0  0  0  0
   -8.1150   -6.2224    1.3416 N   0  0  0  0  0  0  0  0  0  0  0  0
   -3.8040   -3.4777    2.2969 C   0  0  2  0  0  0  0  0  0  0  0  0
   -3.7787   -3.9936    3.7564 C   0  0  0  0  0  0  0  0  0  0  0  0
   -4.2197   -2.0081    2.4053 C   0  0  0  0  0  0  0  0  0  0  0  0
   -4.4059   -2.8870    4.6414 C   0  0  2  0  0  0  0  0  0  0  0  0
   -5.1195   -1.9780    3.6292 C   0  0  1  0  0  0  0  0  0  0  0  0
   -9.6011   -6.3589   -1.0501 C   0  0  2  0  0  0  0  0  0  0  0  0
  -10.1089   -6.6623   -2.4487 C   0  0  0  0  0  0  0  0  0  0  0  0
  -10.2608   -4.9742   -0.8679 C   0  0  0  0  0  0  0  0  0  0  0  0
  -10.3886   -5.4723   -3.1410 C   0  0  0  0  0  0  0  0  0  0  0  0
  -10.3795   -7.8878   -3.0334 C   0  0  0  0  0  0  0  0  0  0  0  0
  -10.2098   -4.2896   -2.2449 C   0  0  0  0  0  0  0  0  0  0  0  0
  -10.8214   -5.4817   -4.4588 C   0  0  0  0  0  0  0  0  0  0  0  0
  -10.8902   -7.9074   -4.3400 C   0  0  0  0  0  0  0  0  0  0  0  0
  -11.0776   -6.7150   -5.0553 C   0  0  0  0  0  0  0  0  0  0  0  0
   -7.7495   -5.7805   -1.8395 H   0  0  0  0  0  0  0  0  0  0  0  0
   -2.8891   -2.9650    6.1825 H   0  0  0  0  0  0  0  0  0  0  0  0
   -2.5522   -1.7672    4.9168 H   0  0  0  0  0  0  0  0  0  0  0  0
   -3.6349    0.8682    9.0404 H   0  0  0  0  0  0  0  0  0  0  0  0
   -4.0568    1.5660    7.5527 H   0  0  0  0  0  0  0  0  0  0  0  0
   -4.5186   -0.1880    4.1608 H   0  0  0  0  0  0  0  0  0  0  0  0
   -3.4608   -3.5840   -0.4079 H   0  0  0  0  0  0  0  0  0  0  0  0
   -5.4179   -4.8258   -1.8122 H   0  0  0  0  0  0  0  0  0  0  0  0
   -8.0235   -6.1434    3.4022 H   0  0  0  0  0  0  0  0  0  0  0  0
   -2.7788   -3.5326    1.9055 H   0  0  0  0  0  0  0  0  0  0  0  0
   -4.2955   -4.9464    3.8908 H   0  0  0  0  0  0  0  0  0  0  0  0
   -2.7398   -4.1788    4.0593 H   0  0  0  0  0  0  0  0  0  0  0  0
   -4.7349   -1.6196    1.5203 H   0  0  0  0  0  0  0  0  0  0  0  0
   -3.3401   -1.3707    2.5613 H   0  0  0  0  0  0  0  0  0  0  0  0
   -5.1602   -3.3155    5.3132 H   0  0  0  0  0  0  0  0  0  0  0  0
   -6.0914   -2.4185    3.3792 H   0  0  0  0  0  0  0  0  0  0  0  0
   -9.9763   -7.0940   -0.3295 H   0  0  0  0  0  0  0  0  0  0  0  0
  -11.3160   -5.1272   -0.5918 H   0  0  0  0  0  0  0  0  0  0  0  0
   -9.8139   -4.3565   -0.0854 H   0  0  0  0  0  0  0  0  0  0  0  0
  -10.2452   -8.8146   -2.4852 H   0  0  0  0  0  0  0  0  0  0  0  0
  -11.0248   -3.5683   -2.3537 H   0  0  0  0  0  0  0  0  0  0  0  0
   -9.2448   -3.8051   -2.4241 H   0  0  0  0  0  0  0  0  0  0  0  0
  -10.9962   -4.5576   -4.9987 H   0  0  0  0  0  0  0  0  0  0  0  0
  -11.1512   -8.8548   -4.8053 H   0  0  0  0  0  0  0  0  0  0  0  0
  -11.4538   -6.7513   -6.0770 H   0  0  0  0  0  0  0  0  0  0  0  0
  1 15  1  0  0  0  0
  1 32  1  0  0  0  0
  2  3  1  0  0  0  0
  2 33  1  0  0  0  0
  2 34  1  0  0  0  0
  3  4  1  0  0  0  0
  4  5  1  0  0  0  0
  4  6  2  0  0  0  0
  4  7  2  0  0  0  0
  5 35  1  0  0  0  0
  5 36  1  0  0  0  0
  8 37  1  0  0  0  0
  9 10  1  0  0  0  0
  9 11  1  0  0  0  0
 10 12  2  0  0  0  0
 10 13  1  0  0  0  0
 11 14  2  0  0  0  0
 11 38  1  0  0  0  0
 12 14  1  0  0  0  0
 12 15  1  0  0  0  0
 13 16  2  0  0  0  0
 14 39  1  0  0  0  0
 15 17  2  0  0  0  0
 16 17  1  0  0  0  0
 16 40  1  0  0  0  0
 18 19  1  0  0  0  0
 18 20  1  0  0  0  0
 18 41  1  6  0  0  0
 18  9  1  0  0  0  0
 19 21  1  0  0  0  0
 19 42  1  0  0  0  0
 19 43  1  0  0  0  0
 20 22  1  0  0  0  0
 20 44  1  0  0  0  0
 20 45  1  0  0  0  0
 21  2  1  0  0  0  0
 21 22  1  0  0  0  0
 21 46  1  1  0  0  0
 22 47  1  6  0  0  0
 22  8  1  0  0  0  0
 23  1  1  0  0  0  0
 23 24  1  0  0  0  0
 23 25  1  0  0  0  0
 23 48  1  1  0  0  0
 24 26  2  0  0  0  0
 24 27  1  0  0  0  0
 25 28  1  0  0  0  0
 25 49  1  0  0  0  0
 25 50  1  0  0  0  0
 26 28  1  0  0  0  0
 26 29  1  0  0  0  0
 27 30  2  0  0  0  0
 27 51  1  0  0  0  0
 28 52  1  0  0  0  0
 28 53  1  0  0  0  0
 29 31  2  0  0  0  0
 29 54  1  0  0  0  0
 30 31  1  0  0  0  0
 30 55  1  0  0  0  0
 31 56  1  0  0  0  0
M  END
>  <Mol_ID>
6719

>  <Formula>
C21H25N5O4S

>  <MolWeight>
443.5193

>  <Cat>
S7109

>  <Name>
Pevonedistat (MLN4924)

>  <Target>
E1 Activating

>  <Form>
Free base

>  <CAS>
905579-51-3

>  <URL>
http://www.selleckchem.com/products/mln-4924.html

$$$$
