PF-06928215
 OpenBabel08302521313D

 48 51  0  0  0  0  0  0  0  0999 V2000
   -2.2166   -0.6345   -2.2631 C   0  0  1  0  0  0  0  0  0  0  0  0
   -2.6540   -1.0329   -0.8335 C   0  0  2  0  0  0  0  0  0  0  0  0
   -2.7121    0.1811    0.1087 C   0  0  0  0  0  0  0  0  0  0  0  0
   -3.5631    1.3161   -0.4581 C   0  0  0  0  0  0  0  0  0  0  0  0
   -3.1235    1.7191   -1.8603 C   0  0  0  0  0  0  0  0  0  0  0  0
   -3.0780    0.5192   -2.8045 C   0  0  0  0  0  0  0  0  0  0  0  0
   -0.7383   -0.2883   -2.3241 C   0  0  0  0  0  0  0  0  0  0  0  0
    0.0805   -0.3954   -1.4236 O   0  0  0  0  0  0  0  0  0  0  0  0
   -0.3363    0.1038   -3.5481 O   0  0  0  0  0  0  0  0  0  0  0  0
   -1.7953   -2.0795   -0.2721 N   0  0  0  0  0  0  0  0  0  0  0  0
   -2.0576   -3.4327   -0.3942 C   0  0  0  0  0  0  0  0  0  0  0  0
   -3.1302   -3.8567   -0.8109 O   0  0  0  0  0  0  0  0  0  0  0  0
   -0.9966   -5.5434    0.5718 C   0  0  0  0  0  0  0  0  0  0  0  0
   -2.0410   -6.2812    1.0660 N   0  0  0  0  0  0  0  0  0  0  0  0
   -1.7547   -7.4086    1.6535 C   0  0  0  0  0  0  0  0  0  0  0  0
   -0.3779   -7.9887    1.7626 C   0  0  0  0  0  0  0  0  0  0  0  0
    0.6218   -7.2388    1.2755 C   0  0  0  0  0  0  0  0  0  0  0  0
    0.3288   -5.9903    0.6840 N   0  0  0  0  0  0  0  0  0  0  0  0
    1.2045   -5.0825    0.1701 N   0  0  0  0  0  0  0  0  0  0  0  0
    0.4352   -4.0809   -0.2486 C   0  0  0  0  0  0  0  0  0  0  0  0
   -0.9427   -4.2968   -0.0365 C   0  0  0  0  0  0  0  0  0  0  0  0
   -2.8490   -8.2057    2.2806 C   0  0  0  0  0  0  0  0  0  0  0  0
   -4.1144   -8.2154    1.6836 C   0  0  0  0  0  0  0  0  0  0  0  0
   -5.1633   -8.9203    2.2791 C   0  0  0  0  0  0  0  0  0  0  0  0
   -4.9556   -9.6082    3.4749 C   0  0  0  0  0  0  0  0  0  0  0  0
   -3.6996   -9.5952    4.0786 C   0  0  0  0  0  0  0  0  0  0  0  0
   -2.6480   -8.8931    3.4866 C   0  0  0  0  0  0  0  0  0  0  0  0
    1.9422   -7.6643    1.3397 O   0  0  0  0  0  0  0  0  0  0  0  0
   -2.3433   -1.5082   -2.9165 H   0  0  0  0  0  0  0  0  0  0  0  0
   -3.6703   -1.4435   -0.9035 H   0  0  0  0  0  0  0  0  0  0  0  0
   -3.1223   -0.1242    1.0792 H   0  0  0  0  0  0  0  0  0  0  0  0
   -1.7016    0.5565    0.3113 H   0  0  0  0  0  0  0  0  0  0  0  0
   -4.6153    1.0071   -0.4832 H   0  0  0  0  0  0  0  0  0  0  0  0
   -3.5054    2.1864    0.2062 H   0  0  0  0  0  0  0  0  0  0  0  0
   -3.8160    2.4708   -2.2584 H   0  0  0  0  0  0  0  0  0  0  0  0
   -2.1369    2.1960   -1.8152 H   0  0  0  0  0  0  0  0  0  0  0  0
   -2.7172    0.8540   -3.7844 H   0  0  0  0  0  0  0  0  0  0  0  0
   -4.1014    0.1558   -2.9629 H   0  0  0  0  0  0  0  0  0  0  0  0
    0.6293    0.2456   -3.4549 H   0  0  0  0  0  0  0  0  0  0  0  0
   -0.8642   -1.7895    0.0084 H   0  0  0  0  0  0  0  0  0  0  0  0
   -0.2278   -8.9631    2.2032 H   0  0  0  0  0  0  0  0  0  0  0  0
    0.9165   -3.2295   -0.7152 H   0  0  0  0  0  0  0  0  0  0  0  0
   -4.2902   -7.6685    0.7589 H   0  0  0  0  0  0  0  0  0  0  0  0
   -6.1468   -8.9212    1.8154 H   0  0  0  0  0  0  0  0  0  0  0  0
   -5.7779  -10.1427    3.9444 H   0  0  0  0  0  0  0  0  0  0  0  0
   -3.5437  -10.1166    5.0199 H   0  0  0  0  0  0  0  0  0  0  0  0
   -1.6920   -8.8646    4.0009 H   0  0  0  0  0  0  0  0  0  0  0  0
    1.9843   -8.5350    1.7658 H   0  0  0  0  0  0  0  0  0  0  0  0
  1  2  1  0  0  0  0
  1  6  1  0  0  0  0
  1  7  1  0  0  0  0
  1 29  1  6  0  0  0
  2  3  1  0  0  0  0
  2 30  1  6  0  0  0
  2 10  1  0  0  0  0
  3  4  1  0  0  0  0
  3 31  1  0  0  0  0
  3 32  1  0  0  0  0
  4  5  1  0  0  0  0
  4 33  1  0  0  0  0
  4 34  1  0  0  0  0
  5  6  1  0  0  0  0
  5 35  1  0  0  0  0
  5 36  1  0  0  0  0
  6 37  1  0  0  0  0
  6 38  1  0  0  0  0
  7  8  2  0  0  0  0
  7  9  1  0  0  0  0
  9 39  1  0  0  0  0
 10 11  1  0  0  0  0
 10 40  1  0  0  0  0
 11 12  2  0  0  0  0
 11 21  1  0  0  0  0
 13 14  1  0  0  0  0
 13 18  1  0  0  0  0
 14 15  2  0  0  0  0
 15 16  1  0  0  0  0
 15 22  1  0  0  0  0
 16 17  2  0  0  0  0
 16 41  1  0  0  0  0
 17 18  1  0  0  0  0
 17 28  1  0  0  0  0
 19 20  2  0  0  0  0
 19 18  1  0  0  0  0
 20 21  1  0  0  0  0
 20 42  1  0  0  0  0
 21 13  2  0  0  0  0
 22 23  2  0  0  0  0
 22 27  1  0  0  0  0
 23 24  1  0  0  0  0
 23 43  1  0  0  0  0
 24 25  2  0  0  0  0
 24 44  1  0  0  0  0
 25 26  1  0  0  0  0
 25 45  1  0  0  0  0
 26 27  2  0  0  0  0
 26 46  1  0  0  0  0
 27 47  1  0  0  0  0
 28 48  1  0  0  0  0
M  END
>  <Mol_ID>
6031

>  <Formula>
C20H20N4O4

>  <MolWeight>
380.3972

>  <Cat>
S9615

>  <Name>
PF-06928215

>  <Synonyms>
N/A

>  <Target>
cGAS

>  <Form>
Free Base

>  <CAS>
2378173-15-8

>  <URL>
http://www.selleckchem.com/products/pf-06928215.html

$$$$
