PF-04708671.cdx
 OpenBabel08302522033D

 49 52  0  0  0  0  0  0  0  0999 V2000
   -5.5563    0.1241   -1.7650 N   0  0  0  0  0  0  0  0  0  0  0  0
   -4.2017    0.1112   -1.5233 C   0  0  0  0  0  0  0  0  0  0  0  0
   -3.5166    0.3447   -2.6219 N   0  0  0  0  0  0  0  0  0  0  0  0
   -1.0472    1.8937    4.8998 C   0  0  0  0  0  0  0  0  0  0  0  0
    0.0315    2.4850    5.5395 C   0  0  0  0  0  0  0  0  0  0  0  0
    1.0087    3.1691    4.9188 N   0  0  0  0  0  0  0  0  0  0  0  0
    0.8826    3.2524    3.5929 C   0  0  0  0  0  0  0  0  0  0  0  0
   -0.1033    2.7225    2.8569 N   0  0  0  0  0  0  0  0  0  0  0  0
   -1.0640    2.0329    3.5047 C   0  0  0  0  0  0  0  0  0  0  0  0
   -2.1308    1.5375    2.7506 N   0  0  0  0  0  0  0  0  0  0  0  0
   -2.3583    2.1861    1.4464 C   0  0  0  0  0  0  0  0  0  0  0  0
   -3.8071    1.8598    0.9892 C   0  0  0  0  0  0  0  0  0  0  0  0
   -4.1885    0.4165    0.9577 N   0  0  0  0  0  0  0  0  0  0  0  0
   -3.7207   -0.2354    2.2120 C   0  0  0  0  0  0  0  0  0  0  0  0
   -2.2595    0.0775    2.6374 C   0  0  0  0  0  0  0  0  0  0  0  0
   -2.0793    1.0970    5.6606 C   0  0  0  0  0  0  0  0  0  0  0  0
   -2.4088    1.5009    7.0941 C   0  0  0  0  0  0  0  0  0  0  0  0
   -3.6098   -0.2778   -0.2012 C   0  0  0  0  0  0  0  0  0  0  0  0
   -5.7330    0.2039   -3.1290 C   0  0  0  0  0  0  0  0  0  0  0  0
   -4.4436    0.3478   -3.6300 C   0  0  0  0  0  0  0  0  0  0  0  0
   -4.2343    0.4090   -5.0126 C   0  0  0  0  0  0  0  0  0  0  0  0
   -5.3338    0.2700   -5.8753 C   0  0  0  0  0  0  0  0  0  0  0  0
   -6.6296    0.1505   -5.3371 C   0  0  0  0  0  0  0  0  0  0  0  0
   -6.8614    0.1304   -3.9507 C   0  0  0  0  0  0  0  0  0  0  0  0
   -5.1196    0.1937   -7.3668 C   0  0  0  0  0  0  0  0  0  0  0  0
   -3.8162    0.3068   -7.7407 F   0  0  0  0  0  0  0  0  0  0  0  0
   -5.5548   -0.9866   -7.8917 F   0  0  0  0  0  0  0  0  0  0  0  0
   -5.7851    1.1694   -8.0439 F   0  0  0  0  0  0  0  0  0  0  0  0
   -6.2780   -0.0196   -1.0613 H   0  0  0  0  0  0  0  0  0  0  0  0
    0.1631    2.4303    6.6154 H   0  0  0  0  0  0  0  0  0  0  0  0
    1.6526    3.7995    3.0604 H   0  0  0  0  0  0  0  0  0  0  0  0
   -2.2630    3.2758    1.5221 H   0  0  0  0  0  0  0  0  0  0  0  0
   -1.6327    1.8322    0.7007 H   0  0  0  0  0  0  0  0  0  0  0  0
   -4.4900    2.3460    1.6998 H   0  0  0  0  0  0  0  0  0  0  0  0
   -4.0044    2.3395    0.0237 H   0  0  0  0  0  0  0  0  0  0  0  0
   -4.3880    0.0969    3.0181 H   0  0  0  0  0  0  0  0  0  0  0  0
   -3.8562   -1.3222    2.1492 H   0  0  0  0  0  0  0  0  0  0  0  0
   -1.5458   -0.3150    1.9018 H   0  0  0  0  0  0  0  0  0  0  0  0
   -2.0542   -0.4449    3.5747 H   0  0  0  0  0  0  0  0  0  0  0  0
   -3.0324    1.1123    5.1193 H   0  0  0  0  0  0  0  0  0  0  0  0
   -1.7298    0.0575    5.6825 H   0  0  0  0  0  0  0  0  0  0  0  0
   -3.0523    2.3851    7.1107 H   0  0  0  0  0  0  0  0  0  0  0  0
   -2.9560    0.6838    7.5821 H   0  0  0  0  0  0  0  0  0  0  0  0
   -1.5269    1.7054    7.7039 H   0  0  0  0  0  0  0  0  0  0  0  0
   -3.8057   -1.3540   -0.1028 H   0  0  0  0  0  0  0  0  0  0  0  0
   -2.5194   -0.1626   -0.2448 H   0  0  0  0  0  0  0  0  0  0  0  0
   -3.2209    0.5026   -5.3901 H   0  0  0  0  0  0  0  0  0  0  0  0
   -7.4815    0.0474   -6.0069 H   0  0  0  0  0  0  0  0  0  0  0  0
   -7.8597    0.0176   -3.5484 H   0  0  0  0  0  0  0  0  0  0  0  0
  1  2  1  0  0  0  0
  1 29  1  0  0  0  0
  2  3  2  0  0  0  0
  3 20  1  0  0  0  0
  4  5  2  0  0  0  0
  4 16  1  0  0  0  0
  5  6  1  0  0  0  0
  5 30  1  0  0  0  0
  6  7  2  0  0  0  0
  7  8  1  0  0  0  0
  7 31  1  0  0  0  0
  8  9  2  0  0  0  0
  9  4  1  0  0  0  0
  9 10  1  0  0  0  0
 10 11  1  0  0  0  0
 10 15  1  0  0  0  0
 11 12  1  0  0  0  0
 11 32  1  0  0  0  0
 11 33  1  0  0  0  0
 12 13  1  0  0  0  0
 12 34  1  0  0  0  0
 12 35  1  0  0  0  0
 13 14  1  0  0  0  0
 13 18  1  0  0  0  0
 14 15  1  0  0  0  0
 14 36  1  0  0  0  0
 14 37  1  0  0  0  0
 15 38  1  0  0  0  0
 15 39  1  0  0  0  0
 16 17  1  0  0  0  0
 16 40  1  0  0  0  0
 16 41  1  0  0  0  0
 17 42  1  0  0  0  0
 17 43  1  0  0  0  0
 17 44  1  0  0  0  0
 18  2  1  0  0  0  0
 18 45  1  0  0  0  0
 18 46  1  0  0  0  0
 19  1  1  0  0  0  0
 19 20  2  0  0  0  0
 20 21  1  0  0  0  0
 21 22  2  0  0  0  0
 21 47  1  0  0  0  0
 22 23  1  0  0  0  0
 22 25  1  0  0  0  0
 23 24  2  0  0  0  0
 23 48  1  0  0  0  0
 24 19  1  0  0  0  0
 24 49  1  0  0  0  0
 25 26  1  0  0  0  0
 25 27  1  0  0  0  0
 25 28  1  0  0  0  0
M  END
>  <Mol_ID>
1188

>  <Formula>
C19H21F3N6

>  <MolWeight>
390.4054496

>  <Cat>
S2163

>  <Name>
PF-4708671

>  <Synonyms>
N/A

>  <Target>
Autophagy,S6 Kinase

>  <Form>
free base

>  <CAS>
1255517-76-0

>  <URL>
http://selleckchem.com/products/pf-4708671.html

$$$$
