PF-06405761.cdx
 OpenBabel08302522033D

 41 43  0  0  0  0  0  0  0  0999 V2000
   -3.1795    0.5953    0.3287 C   0  0  0  0  0  0  0  0  0  0  0  0
   -3.2185   -0.7550   -0.0358 C   0  0  0  0  0  0  0  0  0  0  0  0
   -2.0288   -1.4993   -0.1362 C   0  0  0  0  0  0  0  0  0  0  0  0
   -1.9429    1.1964    0.5633 C   0  0  0  0  0  0  0  0  0  0  0  0
   -0.7504    0.4787    0.3838 C   0  0  0  0  0  0  0  0  0  0  0  0
   -0.7969   -0.8711    0.0536 C   0  0  0  0  0  0  0  0  0  0  0  0
    0.3973   -1.5658   -0.1239 N   0  0  0  0  0  0  0  0  0  0  0  0
    1.6485   -1.0137   -0.0819 C   0  0  0  0  0  0  0  0  0  0  0  0
    1.7300    0.3317    0.2014 N   0  0  0  0  0  0  0  0  0  0  0  0
    0.5671    1.1785    0.4025 C   0  0  0  0  0  0  0  0  0  0  0  0
    2.6267   -1.7242   -0.3105 O   0  0  0  0  0  0  0  0  0  0  0  0
    2.9972    1.0238    0.0511 C   0  0  0  0  0  0  0  0  0  0  0  0
   -4.3788    1.4187    0.2921 N   0  0  0  0  0  0  0  0  0  0  0  0
   -4.5844    2.1978   -1.2365 S   0  0  0  0  0  0  0  0  0  0  0  0
   -3.4318    3.0298   -1.4991 O   0  0  0  0  0  0  0  0  0  0  0  0
   -4.9527    1.1428   -2.1539 O   0  0  0  0  0  0  0  0  0  0  0  0
   -6.0229    3.2676   -1.0674 C   0  0  0  0  0  0  0  0  0  0  0  0
   -5.9407    4.6153   -0.6879 C   0  0  0  0  0  0  0  0  0  0  0  0
   -7.0007    5.4867   -1.0108 C   0  0  0  0  0  0  0  0  0  0  0  0
   -8.1398    5.0347   -1.6763 C   0  0  0  0  0  0  0  0  0  0  0  0
   -8.2534    3.6882   -1.9927 C   0  0  0  0  0  0  0  0  0  0  0  0
   -7.2077    2.8101   -1.6859 C   0  0  0  0  0  0  0  0  0  0  0  0
   -4.8904    5.2644   -0.1047 O   0  0  0  0  0  0  0  0  0  0  0  0
   -4.3237    4.6336    1.0365 C   0  0  0  0  0  0  0  0  0  0  0  0
   -4.1553   -1.2401   -0.2882 H   0  0  0  0  0  0  0  0  0  0  0  0
   -2.0726   -2.5468   -0.4269 H   0  0  0  0  0  0  0  0  0  0  0  0
   -1.8958    2.2503    0.8216 H   0  0  0  0  0  0  0  0  0  0  0  0
    0.3890   -2.5480   -0.3696 H   0  0  0  0  0  0  0  0  0  0  0  0
    0.5642    1.9061   -0.4182 H   0  0  0  0  0  0  0  0  0  0  0  0
    0.7012    1.7135    1.3494 H   0  0  0  0  0  0  0  0  0  0  0  0
    2.9532    1.6176   -0.8683 H   0  0  0  0  0  0  0  0  0  0  0  0
    3.1463    1.6946    0.9022 H   0  0  0  0  0  0  0  0  0  0  0  0
    3.8436    0.3364   -0.0191 H   0  0  0  0  0  0  0  0  0  0  0  0
   -5.2095    0.8504    0.4655 H   0  0  0  0  0  0  0  0  0  0  0  0
   -6.9196    6.5465   -0.7708 H   0  0  0  0  0  0  0  0  0  0  0  0
   -8.9199    5.7363   -1.9659 H   0  0  0  0  0  0  0  0  0  0  0  0
   -9.1283    3.3312   -2.5327 H   0  0  0  0  0  0  0  0  0  0  0  0
   -7.2984    1.7784   -2.0212 H   0  0  0  0  0  0  0  0  0  0  0  0
   -4.9791    3.8866    1.4954 H   0  0  0  0  0  0  0  0  0  0  0  0
   -3.3646    4.1937    0.7588 H   0  0  0  0  0  0  0  0  0  0  0  0
   -4.1195    5.4048    1.7859 H   0  0  0  0  0  0  0  0  0  0  0  0
  1  2  2  0  0  0  0
  1 13  1  0  0  0  0
  2  3  1  0  0  0  0
  2 25  1  0  0  0  0
  3  6  2  0  0  0  0
  3 26  1  0  0  0  0
  4  1  1  0  0  0  0
  4 27  1  0  0  0  0
  5  4  2  0  0  0  0
  5  6  1  0  0  0  0
  5 10  1  0  0  0  0
  6  7  1  0  0  0  0
  7  8  1  0  0  0  0
  7 28  1  0  0  0  0
  8  9  1  0  0  0  0
  8 11  2  0  0  0  0
  9 10  1  0  0  0  0
  9 12  1  0  0  0  0
 10 29  1  0  0  0  0
 10 30  1  0  0  0  0
 12 31  1  0  0  0  0
 12 32  1  0  0  0  0
 12 33  1  0  0  0  0
 13 14  1  0  0  0  0
 13 34  1  0  0  0  0
 14 15  2  0  0  0  0
 14 16  2  0  0  0  0
 14 17  1  0  0  0  0
 17 18  2  0  0  0  0
 18 19  1  0  0  0  0
 18 23  1  0  0  0  0
 19 20  2  0  0  0  0
 19 35  1  0  0  0  0
 20 21  1  0  0  0  0
 20 36  1  0  0  0  0
 21 22  2  0  0  0  0
 21 37  1  0  0  0  0
 22 17  1  0  0  0  0
 22 38  1  0  0  0  0
 23 24  1  0  0  0  0
 24 39  1  0  0  0  0
 24 40  1  0  0  0  0
 24 41  1  0  0  0  0
M  END
>  <Mol_ID>
1192

>  <Formula>
C16H17N3O4S

>  <MolWeight>
347.38888

>  <Cat>
S1216

>  <Name>
PFI-1 (PF-6405761)

>  <Synonyms>
N/A

>  <Target>
Epigenetic Reader Domain

>  <Form>
free base

>  <CAS>
1403764-72-6

>  <URL>
http://selleckchem.com/products/pfl-1.html

$$$$
