PF-06282999
 OpenBabel08302521223D

 33 34  0  0  0  0  0  0  0  0999 V2000
    0.7771    0.3064   -0.0263 S   0  0  0  0  0  0  0  0  0  0  0  0
    5.2123   -3.2143   -2.4989 O   0  0  0  0  0  0  0  0  0  0  0  0
    5.1627    2.3473   -0.5242 O   0  0  0  0  0  0  0  0  0  0  0  0
    2.7641   -2.3641    2.4045 O   0  0  0  0  0  0  0  0  0  0  0  0
    3.1391   -1.1231   -0.1658 N   0  0  0  0  0  0  0  0  0  0  0  0
    3.1965    1.2280   -0.2804 N   0  0  0  0  0  0  0  0  0  0  0  0
    1.3597   -3.9221    1.5784 N   0  0  0  0  0  0  0  0  0  0  0  0
    4.5342   -1.1288   -0.2621 C   0  0  0  0  0  0  0  0  0  0  0  0
    5.3405   -2.3641   -0.1559 C   0  0  0  0  0  0  0  0  0  0  0  0
    2.4120   -2.4067   -0.0252 C   0  0  0  0  0  0  0  0  0  0  0  0
    5.2400    0.0053   -0.3861 C   0  0  0  0  0  0  0  0  0  0  0  0
    2.4368    0.0915   -0.1559 C   0  0  0  0  0  0  0  0  0  0  0  0
    5.6717   -3.2364   -1.2105 C   0  0  0  0  0  0  0  0  0  0  0  0
    5.8469   -2.6445    1.1330 C   0  0  0  0  0  0  0  0  0  0  0  0
    4.5468    1.2937   -0.4045 C   0  0  0  0  0  0  0  0  0  0  0  0
    6.4903   -4.3476   -0.9492 C   0  0  0  0  0  0  0  0  0  0  0  0
    6.6690   -3.7458    1.3725 C   0  0  0  0  0  0  0  0  0  0  0  0
    2.2081   -2.8546    1.4267 C   0  0  0  0  0  0  0  0  0  0  0  0
    6.9969   -4.5965    0.3260 C   0  0  0  0  0  0  0  0  0  0  0  0
    5.0796   -1.9564   -3.1429 C   0  0  0  0  0  0  0  0  0  0  0  0
    2.7111    2.1167   -0.2703 H   0  0  0  0  0  0  0  0  0  0  0  0
    0.7162   -4.2080    0.8530 H   0  0  0  0  0  0  0  0  0  0  0  0
    1.1600   -4.2169    2.5262 H   0  0  0  0  0  0  0  0  0  0  0  0
    1.4253   -2.3233   -0.4929 H   0  0  0  0  0  0  0  0  0  0  0  0
    2.9274   -3.2023   -0.5701 H   0  0  0  0  0  0  0  0  0  0  0  0
    6.3208    0.0358   -0.4587 H   0  0  0  0  0  0  0  0  0  0  0  0
    5.5871   -1.9996    1.9737 H   0  0  0  0  0  0  0  0  0  0  0  0
    6.7402   -5.0294   -1.7598 H   0  0  0  0  0  0  0  0  0  0  0  0
    7.0442   -3.9361    2.3748 H   0  0  0  0  0  0  0  0  0  0  0  0
    7.6395   -5.4552    0.5009 H   0  0  0  0  0  0  0  0  0  0  0  0
    4.1160   -1.5012   -2.9022 H   0  0  0  0  0  0  0  0  0  0  0  0
    5.9154   -1.2854   -2.9239 H   0  0  0  0  0  0  0  0  0  0  0  0
    5.0834   -2.1409   -4.2226 H   0  0  0  0  0  0  0  0  0  0  0  0
  1 12  2  0  0  0  0
  2 13  1  0  0  0  0
  2 20  1  0  0  0  0
  3 15  2  0  0  0  0
  4 18  2  0  0  0  0
  5  8  1  0  0  0  0
  5 10  1  0  0  0  0
  5 12  1  0  0  0  0
  6 12  1  0  0  0  0
  6 15  1  0  0  0  0
  6 21  1  0  0  0  0
  7 18  1  0  0  0  0
  7 22  1  0  0  0  0
  7 23  1  0  0  0  0
  8  9  1  0  0  0  0
  8 11  2  0  0  0  0
  9 13  2  0  0  0  0
  9 14  1  0  0  0  0
 10 18  1  0  0  0  0
 10 24  1  0  0  0  0
 10 25  1  0  0  0  0
 11 15  1  0  0  0  0
 11 26  1  0  0  0  0
 13 16  1  0  0  0  0
 14 17  2  0  0  0  0
 14 27  1  0  0  0  0
 16 19  2  0  0  0  0
 16 28  1  0  0  0  0
 17 19  1  0  0  0  0
 17 29  1  0  0  0  0
 19 30  1  0  0  0  0
 20 31  1  0  0  0  0
 20 32  1  0  0  0  0
 20 33  1  0  0  0  0
M  END
>  <Mol_ID>
4760

>  <Formula>
C13H12ClN3O3S

>  <MolWeight>
325.77068

>  <Cat>
S6648

>  <Name>
PF-06282999

>  <Synonyms>
N/A

>  <Target>
Peroxidases

>  <Form>
Free Base

>  <CAS>
1435467-37-0

>  <URL>
http://www.selleck.cn/products/pf-06282999.html

$$$$
