PF-06840003.cdx
 OpenBabel08302520433D

 26 28  0  0  0  0  0  0  0  0999 V2000
    1.4484   -1.0963    0.0602 C   0  0  0  0  0  0  0  0  0  0  0  0
    1.7069    0.2675    0.0249 C   0  0  0  0  0  0  0  0  0  0  0  0
    0.6735    1.2164    0.0127 C   0  0  0  0  0  0  0  0  0  0  0  0
   -0.6645    0.7728    0.0464 C   0  0  0  0  0  0  0  0  0  0  0  0
   -0.8918   -0.6083    0.1045 C   0  0  0  0  0  0  0  0  0  0  0  0
    0.1349   -1.5621    0.1030 C   0  0  0  0  0  0  0  0  0  0  0  0
   -1.9519    1.4160    0.0072 C   0  0  0  0  0  0  0  0  0  0  0  0
   -2.8944    0.4058    0.1010 C   0  0  0  0  0  0  0  0  0  0  0  0
   -2.2513   -0.7973    0.1426 N   0  0  0  0  0  0  0  0  0  0  0  0
   -2.3072    2.8618   -0.1586 C   0  0  3  0  0  0  0  0  0  0  0  0
   -1.8283    3.4901   -1.4473 C   0  0  0  0  0  0  0  0  0  0  0  0
   -1.4923    4.7810   -1.1805 N   0  0  0  0  0  0  0  0  0  0  0  0
   -1.5987    5.0918    0.1357 C   0  0  0  0  0  0  0  0  0  0  0  0
   -1.8116    3.8241    0.9137 C   0  0  0  0  0  0  0  0  0  0  0  0
   -1.8314    2.9938   -2.5617 O   0  0  0  0  0  0  0  0  0  0  0  0
   -1.5091    6.2130    0.6057 O   0  0  0  0  0  0  0  0  0  0  0  0
    2.9774    0.6891   -0.0038 F   0  0  0  0  0  0  0  0  0  0  0  0
    2.2772   -1.7975    0.0514 H   0  0  0  0  0  0  0  0  0  0  0  0
    0.9301    2.2675   -0.0254 H   0  0  0  0  0  0  0  0  0  0  0  0
   -0.0786   -2.6264    0.1238 H   0  0  0  0  0  0  0  0  0  0  0  0
   -3.9761    0.4446    0.1000 H   0  0  0  0  0  0  0  0  0  0  0  0
   -2.7040   -1.7006    0.1724 H   0  0  0  0  0  0  0  0  0  0  0  0
   -3.4043    2.9441   -0.1961 H   0  0  0  0  0  0  0  0  0  0  0  0
   -1.2945    5.4556   -1.9030 H   0  0  0  0  0  0  0  0  0  0  0  0
   -2.5650    3.9761    1.6920 H   0  0  0  0  0  0  0  0  0  0  0  0
   -0.8639    3.5274    1.3711 H   0  0  0  0  0  0  0  0  0  0  0  0
  1  2  2  0  0  0  0
  1 18  1  0  0  0  0
  2  3  1  0  0  0  0
  2 17  1  0  0  0  0
  3  4  2  0  0  0  0
  3 19  1  0  0  0  0
  4  5  1  0  0  0  0
  4  7  1  0  0  0  0
  5  6  2  0  0  0  0
  6  1  1  0  0  0  0
  6 20  1  0  0  0  0
  7  8  2  0  0  0  0
  7 10  1  0  0  0  0
  8  9  1  0  0  0  0
  8 21  1  0  0  0  0
  9  5  1  0  0  0  0
  9 22  1  0  0  0  0
 10 11  1  0  0  0  0
 10 23  1  0  0  0  0
 11 12  1  0  0  0  0
 11 15  2  0  0  0  0
 12 13  1  0  0  0  0
 12 24  1  0  0  0  0
 13 14  1  0  0  0  0
 13 16  2  0  0  0  0
 14 10  1  0  0  0  0
 14 25  1  0  0  0  0
 14 26  1  0  0  0  0
M  END
>  <Mol_ID>
4179

>  <Formula>
C12H9FN2O2

>  <MolWeight>
232.2104632

>  <Cat>
S8657

>  <Name>
PF-06840003

>  <Synonyms>
EOS200271

>  <Target>
IDO/TDO

>  <Form>
free base

>  <CAS>
198474-05-4

>  <URL>
http://selleckchem.com/products/pf-06840003.html

$$$$
