PF-06446846 hydrochloride
 OpenBabel08302521353D

 51 55  0  0  0  0  0  0  0  0999 V2000
    1.1922   -0.0017    0.1302 O   0  0  0  0  0  0  0  0  0  0  0  0
    3.1444    0.3255   -1.0762 N   0  0  0  0  0  0  0  0  0  0  0  0
    4.1992    1.3893   -3.9154 N   0  0  0  0  0  0  0  0  0  0  0  0
    5.1093   -0.8482   -1.6913 N   0  0  0  0  0  0  0  0  0  0  0  0
    5.7904   -0.6269    4.3457 N   0  0  0  0  0  0  0  0  0  0  0  0
    5.5230    0.2818    5.3319 N   0  0  0  0  0  0  0  0  0  0  0  0
    6.4711    1.2099    5.2809 N   0  0  0  0  0  0  0  0  0  0  0  0
    7.9170   -1.3383    3.2479 N   0  0  0  0  0  0  0  0  0  0  0  0
    2.3883    0.6578   -2.3184 C   0  0  2  0  0  0  0  0  0  0  0  0
    2.0984   -0.5669   -3.2053 C   0  0  0  0  0  0  0  0  0  0  0  0
    2.9906    1.7841   -3.1893 C   0  0  0  0  0  0  0  0  0  0  0  0
    3.2673   -0.9686   -4.1020 C   0  0  0  0  0  0  0  0  0  0  0  0
    4.0038    0.2092   -4.7513 C   0  0  0  0  0  0  0  0  0  0  0  0
    2.4131   -0.1082    0.0517 C   0  0  0  0  0  0  0  0  0  0  0  0
    4.5509    0.2731   -1.1788 C   0  0  0  0  0  0  0  0  0  0  0  0
    3.1149   -0.6438    1.2622 C   0  0  0  0  0  0  0  0  0  0  0  0
    5.3160    1.3810   -0.8309 C   0  0  0  0  0  0  0  0  0  0  0  0
    4.2339   -1.4647    1.1654 C   0  0  0  0  0  0  0  0  0  0  0  0
    2.6544   -0.2928    2.5394 C   0  0  0  0  0  0  0  0  0  0  0  0
    6.6898    1.3498   -1.0764 C   0  0  0  0  0  0  0  0  0  0  0  0
    4.7473   -1.0491    3.4698 C   0  0  0  0  0  0  0  0  0  0  0  0
    5.0757   -1.6447    2.2540 C   0  0  0  0  0  0  0  0  0  0  0  0
    3.4585   -0.5301    3.6593 C   0  0  0  0  0  0  0  0  0  0  0  0
    6.4376   -0.8532   -1.9195 C   0  0  0  0  0  0  0  0  0  0  0  0
    7.2678    0.2140   -1.6438 C   0  0  0  0  0  0  0  0  0  0  0  0
    7.1444   -0.5352    4.0179 C   0  0  0  0  0  0  0  0  0  0  0  0
    7.4538    0.7491    4.4545 C   0  0  0  0  0  0  0  0  0  0  0  0
    8.6253    1.3416    3.9730 C   0  0  0  0  0  0  0  0  0  0  0  0
    9.4509    0.5597    3.1612 C   0  0  0  0  0  0  0  0  0  0  0  0
    9.0753   -0.7479    2.8714 C   0  0  0  0  0  0  0  0  0  0  0  0
    4.5466    2.1642   -4.4765 H   0  0  0  0  0  0  0  0  0  0  0  0
    1.4156    1.0312   -1.9838 H   0  0  0  0  0  0  0  0  0  0  0  0
    1.7713   -1.4222   -2.6037 H   0  0  0  0  0  0  0  0  0  0  0  0
    1.2547   -0.3107   -3.8651 H   0  0  0  0  0  0  0  0  0  0  0  0
    2.2391    2.1182   -3.9164 H   0  0  0  0  0  0  0  0  0  0  0  0
    3.2181    2.6524   -2.5620 H   0  0  0  0  0  0  0  0  0  0  0  0
    3.9669   -1.5885   -3.5400 H   0  0  0  0  0  0  0  0  0  0  0  0
    2.8971   -1.6330   -4.8928 H   0  0  0  0  0  0  0  0  0  0  0  0
    4.9863   -0.1387   -5.0824 H   0  0  0  0  0  0  0  0  0  0  0  0
    3.4582    0.5072   -5.6566 H   0  0  0  0  0  0  0  0  0  0  0  0
    4.8535    2.2743   -0.4330 H   0  0  0  0  0  0  0  0  0  0  0  0
    4.5277   -1.9013    0.2208 H   0  0  0  0  0  0  0  0  0  0  0  0
    1.7135    0.2403    2.6622 H   0  0  0  0  0  0  0  0  0  0  0  0
    7.3051    2.2162   -0.8716 H   0  0  0  0  0  0  0  0  0  0  0  0
    6.0269   -2.1376    2.0739 H   0  0  0  0  0  0  0  0  0  0  0  0
    3.1324   -0.1611    4.6300 H   0  0  0  0  0  0  0  0  0  0  0  0
    6.8210   -1.7682   -2.3606 H   0  0  0  0  0  0  0  0  0  0  0  0
    8.3223    0.1656   -1.8745 H   0  0  0  0  0  0  0  0  0  0  0  0
    8.8632    2.3737    4.2054 H   0  0  0  0  0  0  0  0  0  0  0  0
   10.3763    0.9638    2.7652 H   0  0  0  0  0  0  0  0  0  0  0  0
    9.7281   -1.3797    2.2710 H   0  0  0  0  0  0  0  0  0  0  0  0
  1 14  2  0  0  0  0
  2 14  1  0  0  0  0
  2 15  1  0  0  0  0
  3 11  1  0  0  0  0
  3 13  1  0  0  0  0
  3 31  1  0  0  0  0
  4 15  2  0  0  0  0
  4 24  1  0  0  0  0
  5  6  1  0  0  0  0
  5 21  1  0  0  0  0
  5 26  1  0  0  0  0
  6  7  2  0  0  0  0
  7 27  1  0  0  0  0
  8 26  1  0  0  0  0
  8 30  2  0  0  0  0
  9  2  1  0  0  0  0
  9 10  1  0  0  0  0
  9 11  1  0  0  0  0
  9 32  1  1  0  0  0
 10 12  1  0  0  0  0
 10 33  1  0  0  0  0
 10 34  1  0  0  0  0
 11 35  1  0  0  0  0
 11 36  1  0  0  0  0
 12 13  1  0  0  0  0
 12 37  1  0  0  0  0
 12 38  1  0  0  0  0
 13 39  1  0  0  0  0
 13 40  1  0  0  0  0
 14 16  1  0  0  0  0
 15 17  1  0  0  0  0
 16 18  2  0  0  0  0
 16 19  1  0  0  0  0
 17 20  2  0  0  0  0
 17 41  1  0  0  0  0
 18 22  1  0  0  0  0
 18 42  1  0  0  0  0
 19 23  2  0  0  0  0
 19 43  1  0  0  0  0
 20 25  1  0  0  0  0
 20 44  1  0  0  0  0
 21 22  2  0  0  0  0
 21 23  1  0  0  0  0
 22 45  1  0  0  0  0
 23 46  1  0  0  0  0
 24 25  2  0  0  0  0
 24 47  1  0  0  0  0
 25 48  1  0  0  0  0
 26 27  2  0  0  0  0
 27 28  1  0  0  0  0
 28 29  2  0  0  0  0
 28 49  1  0  0  0  0
 29 30  1  0  0  0  0
 29 50  1  0  0  0  0
 30 51  1  0  0  0  0
M  END
>  <Mol_ID>
6792

>  <Formula>
C22H21Cl2N7O

>  <MolWeight>
470.35444

>  <Cat>
E0116

>  <Name>
PF-06446846 hydrochloride

>  <Synonyms>
PF846

>  <Target>
PCSK9

>  <Form>
Hydrochloride

>  <CAS>
1632250-50-0

>  <URL>
http://www.selleckchem.com/products/pf-06446846-hydrochloride.html

$$$$
