PF-04957325
 OpenBabel08302521353D

 42 45  0  0  1  0  0  0  0  0999 V2000
    2.3560   -0.5367   -1.4175 C   0  0  0  0  0  0  0  0  0  0  0  0
    1.2293   -5.2337   -5.0377 N   0  0  0  0  0  0  0  0  0  0  0  0
    5.5127   -4.9591   -2.9088 C   0  0  0  0  0  0  0  0  0  0  0  0
    6.2947   -4.2993   -2.0025 F   0  0  0  0  0  0  0  0  0  0  0  0
    5.4573   -6.2507   -2.4611 F   0  0  0  0  0  0  0  0  0  0  0  0
    6.2458   -4.9998   -4.0600 F   0  0  0  0  0  0  0  0  0  0  0  0
    5.5299   -1.1788   -0.6402 C   0  0  0  0  0  0  0  0  0  0  0  0
    2.5374   -2.7938   -2.6219 C   0  0  0  0  0  0  0  0  0  0  0  0
    1.6019   -3.4151   -3.4233 C   0  0  0  0  0  0  0  0  0  0  0  0
    1.8618   -1.7042   -2.1175 N   0  0  0  0  0  0  0  0  0  0  0  0
    3.8101   -3.1838   -2.4309 N   0  0  0  0  0  0  0  0  0  0  0  0
    0.4090   -2.7552   -3.3410 N   0  0  0  0  0  0  0  0  0  0  0  0
    2.0200   -4.5452   -4.1361 C   0  0  0  0  0  0  0  0  0  0  0  0
    0.5654   -1.7223   -2.5184 N   0  0  0  0  0  0  0  0  0  0  0  0
    4.1177   -4.3302   -3.1048 C   0  0  0  0  0  0  0  0  0  0  0  0
    3.2751   -4.9999   -3.9411 N   0  0  0  0  0  0  0  0  0  0  0  0
    2.4823   -0.6722    0.1109 C   0  0  1  0  0  0  0  0  0  0  0  0
    3.5350   -1.6662    0.6638 C   0  0  0  0  0  0  0  0  0  0  0  0
    2.6188    0.6175    0.7508 O   0  0  0  0  0  0  0  0  0  0  0  0
    4.9448   -1.2025    0.7067 N   0  0  0  0  0  0  0  0  0  0  0  0
    3.9597    1.1209    0.8345 C   0  0  0  0  0  0  0  0  0  0  0  0
    4.9672    0.1003    1.3884 C   0  0  0  0  0  0  0  0  0  0  0  0
    6.9873   -0.8698   -0.8272 C   0  0  0  0  0  0  0  0  0  0  0  0
    7.4054    0.0846   -1.6390 N   0  0  0  0  0  0  0  0  0  0  0  0
    8.2042   -1.9412   -0.2593 S   0  0  0  0  0  0  0  0  0  0  0  0
    8.7313   -0.1247   -1.9516 C   0  0  0  0  0  0  0  0  0  0  0  0
    9.3280   -1.1904   -1.3153 C   0  0  0  0  0  0  0  0  0  0  0  0
    1.6440    0.2746   -1.6267 H   0  0  0  0  0  0  0  0  0  0  0  0
    3.2621   -0.2110   -1.9261 H   0  0  0  0  0  0  0  0  0  0  0  0
    0.2306   -5.0916   -4.9633 H   0  0  0  0  0  0  0  0  0  0  0  0
    1.5682   -6.1631   -5.2514 H   0  0  0  0  0  0  0  0  0  0  0  0
    5.3991   -2.1701   -1.0726 H   0  0  0  0  0  0  0  0  0  0  0  0
    5.0104   -0.4697   -1.2798 H   0  0  0  0  0  0  0  0  0  0  0  0
    1.5051   -1.0336    0.4573 H   0  0  0  0  0  0  0  0  0  0  0  0
    3.2531   -1.8676    1.7075 H   0  0  0  0  0  0  0  0  0  0  0  0
    3.4568   -2.6374    0.1668 H   0  0  0  0  0  0  0  0  0  0  0  0
    3.9272    1.9764    1.5202 H   0  0  0  0  0  0  0  0  0  0  0  0
    4.2680    1.5026   -0.1432 H   0  0  0  0  0  0  0  0  0  0  0  0
    4.7198   -0.0870    2.4427 H   0  0  0  0  0  0  0  0  0  0  0  0
    5.9772    0.5248    1.3974 H   0  0  0  0  0  0  0  0  0  0  0  0
    9.2113    0.5199   -2.6781 H   0  0  0  0  0  0  0  0  0  0  0  0
   10.3365   -1.5598   -1.4242 H   0  0  0  0  0  0  0  0  0  0  0  0
  1 10  1  0  0  0  0
  1 28  1  0  0  0  0
  1 29  1  0  0  0  0
  2 13  1  0  0  0  0
  2 30  1  0  0  0  0
  2 31  1  0  0  0  0
  3  4  1  0  0  0  0
  3  5  1  0  0  0  0
  3  6  1  0  0  0  0
  3 15  1  0  0  0  0
  7 20  1  0  0  0  0
  7 23  1  0  0  0  0
  7 32  1  0  0  0  0
  7 33  1  0  0  0  0
  8  9  1  0  0  0  0
  8 10  1  0  0  0  0
  8 11  2  0  0  0  0
  9 12  1  0  0  0  0
  9 13  2  0  0  0  0
 10 14  1  0  0  0  0
 11 15  1  0  0  0  0
 12 14  2  0  0  0  0
 13 16  1  0  0  0  0
 15 16  2  0  0  0  0
 17 18  1  0  0  0  0
 17 19  1  0  0  0  0
 17 34  1  1  0  0  0
 17  1  1  0  0  0  0
 18 20  1  0  0  0  0
 18 35  1  0  0  0  0
 18 36  1  0  0  0  0
 19 21  1  0  0  0  0
 20 22  1  0  0  0  0
 21 22  1  0  0  0  0
 21 37  1  0  0  0  0
 21 38  1  0  0  0  0
 22 39  1  0  0  0  0
 22 40  1  0  0  0  0
 23 24  2  0  0  0  0
 23 25  1  0  0  0  0
 24 26  1  0  0  0  0
 25 27  1  0  0  0  0
 26 27  2  0  0  0  0
 26 41  1  0  0  0  0
 27 42  1  0  0  0  0
M  END
>  <Mol_ID>
6990

>  <Formula>
C14H15F3N8OS

>  <MolWeight>
400.3821096

>  <Cat>
E2983

>  <Name>
PF-04957325

>  <Target>
PDE

>  <Form>
free base

>  <CAS>
1305115-80-3

>  <URL>
https://www.selleckchem.com/products/pf-04957325.html

$$$$
