PF-06651600.cdx
 OpenBabel08302520433D

 40 42  0  0  0  0  0  0  0  0999 V2000
   -0.1715    4.6158   -1.0613 N   0  0  0  0  0  0  0  0  0  0  0  0
    0.6935    5.2189   -1.9027 C   0  0  0  0  0  0  0  0  0  0  0  0
    1.5586    4.6492   -2.7567 N   0  0  0  0  0  0  0  0  0  0  0  0
    1.4926    3.3128   -2.6853 C   0  0  0  0  0  0  0  0  0  0  0  0
    0.6690    2.5570   -1.8635 C   0  0  0  0  0  0  0  0  0  0  0  0
   -0.2139    3.2600   -1.0199 C   0  0  0  0  0  0  0  0  0  0  0  0
    2.2586    2.4619   -3.4344 N   0  0  0  0  0  0  0  0  0  0  0  0
    1.9681    1.1643   -3.0992 C   0  0  0  0  0  0  0  0  0  0  0  0
    0.9868    1.1934   -2.1281 C   0  0  0  0  0  0  0  0  0  0  0  0
   -1.0988    2.6037   -0.1489 N   0  0  0  0  0  0  0  0  0  0  0  0
   -2.3162    3.3457    0.2148 C   0  0  2  0  0  0  0  0  0  0  0  0
   -2.8507    2.8219    1.5548 C   0  0  0  0  0  0  0  0  0  0  0  0
   -3.5325    1.4559    1.4553 C   0  0  0  0  0  0  0  0  0  0  0  0
   -4.5337    1.3408    0.2858 C   0  0  1  0  0  0  0  0  0  0  0  0
   -3.8886    1.8025   -0.9733 N   0  0  0  0  0  0  0  0  0  0  0  0
   -3.4011    3.1974   -0.8685 C   0  0  0  0  0  0  0  0  0  0  0  0
   -5.1889   -0.0378    0.3594 C   0  0  0  0  0  0  0  0  0  0  0  0
   -3.9910    1.3141   -2.2735 C   0  0  0  0  0  0  0  0  0  0  0  0
   -3.7421    2.0081   -3.2612 O   0  0  0  0  0  0  0  0  0  0  0  0
   -4.3223   -0.1148   -2.4997 C   0  0  0  0  0  0  0  0  0  0  0  0
   -4.7677   -0.5381   -3.6915 C   0  0  0  0  0  0  0  0  0  0  0  0
    0.6908    6.3045   -1.8847 H   0  0  0  0  0  0  0  0  0  0  0  0
    2.9334    2.7709   -4.1191 H   0  0  0  0  0  0  0  0  0  0  0  0
    2.4800    0.3402   -3.5789 H   0  0  0  0  0  0  0  0  0  0  0  0
    0.5490    0.3253   -1.6545 H   0  0  0  0  0  0  0  0  0  0  0  0
   -1.2875    1.6618   -0.4787 H   0  0  0  0  0  0  0  0  0  0  0  0
   -2.0937    4.4095    0.3628 H   0  0  0  0  0  0  0  0  0  0  0  0
   -3.5810    3.5430    1.9436 H   0  0  0  0  0  0  0  0  0  0  0  0
   -2.0417    2.7680    2.2940 H   0  0  0  0  0  0  0  0  0  0  0  0
   -4.0489    1.2590    2.4036 H   0  0  0  0  0  0  0  0  0  0  0  0
   -2.7617    0.6820    1.3504 H   0  0  0  0  0  0  0  0  0  0  0  0
   -5.3469    2.0597    0.4614 H   0  0  0  0  0  0  0  0  0  0  0  0
   -4.2673    3.8241   -0.6181 H   0  0  0  0  0  0  0  0  0  0  0  0
   -3.0138    3.5689   -1.8220 H   0  0  0  0  0  0  0  0  0  0  0  0
   -5.6927   -0.1645    1.3257 H   0  0  0  0  0  0  0  0  0  0  0  0
   -5.9561   -0.1682   -0.4088 H   0  0  0  0  0  0  0  0  0  0  0  0
   -4.4513   -0.8434    0.2930 H   0  0  0  0  0  0  0  0  0  0  0  0
   -4.1164   -0.8361   -1.7294 H   0  0  0  0  0  0  0  0  0  0  0  0
   -4.9699   -1.5892   -3.8681 H   0  0  0  0  0  0  0  0  0  0  0  0
   -4.9218    0.1480   -4.5208 H   0  0  0  0  0  0  0  0  0  0  0  0
  1  2  2  0  0  0  0
  2  3  1  0  0  0  0
  2 22  1  0  0  0  0
  3  4  2  0  0  0  0
  4  5  1  0  0  0  0
  4  7  1  0  0  0  0
  5  6  2  0  0  0  0
  6  1  1  0  0  0  0
  6 10  1  0  0  0  0
  7  8  1  0  0  0  0
  7 23  1  0  0  0  0
  8  9  2  0  0  0  0
  8 24  1  0  0  0  0
  9  5  1  0  0  0  0
  9 25  1  0  0  0  0
 10 26  1  0  0  0  0
 11 10  1  0  0  0  0
 11 12  1  0  0  0  0
 11 27  1  1  0  0  0
 12 13  1  0  0  0  0
 12 28  1  0  0  0  0
 12 29  1  0  0  0  0
 13 14  1  0  0  0  0
 13 30  1  0  0  0  0
 13 31  1  0  0  0  0
 14 15  1  0  0  0  0
 14 17  1  0  0  0  0
 14 32  1  1  0  0  0
 15 16  1  0  0  0  0
 15 18  1  0  0  0  0
 16 11  1  0  0  0  0
 16 33  1  0  0  0  0
 16 34  1  0  0  0  0
 17 35  1  0  0  0  0
 17 36  1  0  0  0  0
 17 37  1  0  0  0  0
 18 19  2  0  0  0  0
 18 20  1  0  0  0  0
 20 21  2  0  0  0  0
 20 38  1  0  0  0  0
 21 39  1  0  0  0  0
 21 40  1  0  0  0  0
M  END
>  <Mol_ID>
4191

>  <Formula>
C15H19N5O

>  <MolWeight>
285.34426

>  <Cat>
S8538

>  <Name>
Ritlecitinib (PF-06651600)

>  <Synonyms>
N/A

>  <Target>
JAK

>  <Form>
free base

>  <CAS>
1792180-81-4

>  <URL>
http://selleckchem.com/products/pf-06651600.html

$$$$
