PF-06273340.cdx
 OpenBabel08302520433D

 56 59  0  0  0  0  0  0  0  0999 V2000
   -2.2308    0.4934   -0.0986 N   0  0  0  0  0  0  0  0  0  0  0  0
   -2.0482   -0.8213    0.0538 C   0  0  0  0  0  0  0  0  0  0  0  0
   -0.8720   -1.4545    0.0714 N   0  0  0  0  0  0  0  0  0  0  0  0
    0.1888   -0.6315    0.0370 C   0  0  0  0  0  0  0  0  0  0  0  0
    0.1302    0.7566   -0.0197 C   0  0  0  0  0  0  0  0  0  0  0  0
   -1.1491    1.2976   -0.1479 C   0  0  0  0  0  0  0  0  0  0  0  0
    1.5156   -1.0125    0.0243 N   0  0  0  0  0  0  0  0  0  0  0  0
    2.2826    0.1310    0.1105 C   0  0  0  0  0  0  0  0  0  0  0  0
    1.4657    1.2509    0.0894 C   0  0  0  0  0  0  0  0  0  0  0  0
   -3.1910   -1.5843    0.1659 N   0  0  0  0  0  0  0  0  0  0  0  0
    2.0491   -2.3960   -0.0257 C   0  0  0  0  0  0  0  0  0  0  0  0
    3.4398   -2.4287   -0.7129 C   0  0  0  0  0  0  0  0  0  0  0  0
    2.1991   -2.9270    1.4122 C   0  0  0  0  0  0  0  0  0  0  0  0
    1.1439   -3.3818   -0.8219 C   0  0  0  0  0  0  0  0  0  0  0  0
    1.0032   -3.0045   -2.1906 O   0  0  0  0  0  0  0  0  0  0  0  0
    1.9882    2.6181    0.1612 C   0  0  0  0  0  0  0  0  0  0  0  0
    3.1229    2.8973   -0.2181 O   0  0  0  0  0  0  0  0  0  0  0  0
    1.1518    3.7084    0.7086 C   0  0  0  0  0  0  0  0  0  0  0  0
    0.2562    3.4817    1.7423 C   0  0  0  0  0  0  0  0  0  0  0  0
   -0.5870    4.4205    2.2132 N   0  0  0  0  0  0  0  0  0  0  0  0
   -0.4894    5.6616    1.6702 C   0  0  0  0  0  0  0  0  0  0  0  0
    0.4328    6.0249    0.6903 C   0  0  0  0  0  0  0  0  0  0  0  0
    1.2701    5.0149    0.2055 C   0  0  0  0  0  0  0  0  0  0  0  0
    0.5652    7.3345    0.1662 N   0  0  0  0  0  0  0  0  0  0  0  0
   -0.1948    8.4356    0.5369 C   0  0  0  0  0  0  0  0  0  0  0  0
    0.1665    9.7169   -0.1780 C   0  0  0  0  0  0  0  0  0  0  0  0
   -1.1067    8.4337    1.3645 O   0  0  0  0  0  0  0  0  0  0  0  0
    1.1966   10.4926    0.5901 C   0  0  0  0  0  0  0  0  0  0  0  0
    0.8233   11.3966    1.5819 C   0  0  0  0  0  0  0  0  0  0  0  0
    1.8163   12.0949    2.2633 C   0  0  0  0  0  0  0  0  0  0  0  0
    3.1491   11.8623    1.9465 C   0  0  0  0  0  0  0  0  0  0  0  0
    3.4336   10.9337    0.9602 C   0  0  0  0  0  0  0  0  0  0  0  0
    2.4934   10.2449    0.2755 N   0  0  0  0  0  0  0  0  0  0  0  0
   -1.3588    2.3553   -0.2589 H   0  0  0  0  0  0  0  0  0  0  0  0
    3.3623    0.0864    0.1794 H   0  0  0  0  0  0  0  0  0  0  0  0
   -3.0394   -2.5198   -0.1792 H   0  0  0  0  0  0  0  0  0  0  0  0
   -3.9815   -1.0693   -0.1948 H   0  0  0  0  0  0  0  0  0  0  0  0
    4.1977   -1.8829   -0.1411 H   0  0  0  0  0  0  0  0  0  0  0  0
    3.8070   -3.4568   -0.8122 H   0  0  0  0  0  0  0  0  0  0  0  0
    3.3995   -1.9891   -1.7165 H   0  0  0  0  0  0  0  0  0  0  0  0
    1.2463   -2.8980    1.9526 H   0  0  0  0  0  0  0  0  0  0  0  0
    2.5507   -3.9659    1.4141 H   0  0  0  0  0  0  0  0  0  0  0  0
    2.9218   -2.3343    1.9849 H   0  0  0  0  0  0  0  0  0  0  0  0
    1.5957   -4.3813   -0.8201 H   0  0  0  0  0  0  0  0  0  0  0  0
    0.1514   -3.5156   -0.3843 H   0  0  0  0  0  0  0  0  0  0  0  0
    0.4716   -2.1877   -2.2034 H   0  0  0  0  0  0  0  0  0  0  0  0
    0.1603    2.5172    2.2340 H   0  0  0  0  0  0  0  0  0  0  0  0
   -1.2051    6.3580    2.0912 H   0  0  0  0  0  0  0  0  0  0  0  0
    2.0092    5.2208   -0.5657 H   0  0  0  0  0  0  0  0  0  0  0  0
    1.3286    7.5004   -0.4791 H   0  0  0  0  0  0  0  0  0  0  0  0
    0.5283    9.4991   -1.1897 H   0  0  0  0  0  0  0  0  0  0  0  0
   -0.7472   10.3109   -0.3028 H   0  0  0  0  0  0  0  0  0  0  0  0
   -0.2234   11.5601    1.8281 H   0  0  0  0  0  0  0  0  0  0  0  0
    1.5528   12.8122    3.0359 H   0  0  0  0  0  0  0  0  0  0  0  0
    3.9462   12.3896    2.4584 H   0  0  0  0  0  0  0  0  0  0  0  0
    4.4610   10.7113    0.6840 H   0  0  0  0  0  0  0  0  0  0  0  0
  1  2  2  0  0  0  0
  2  3  1  0  0  0  0
  2 10  1  0  0  0  0
  3  4  2  0  0  0  0
  4  5  1  0  0  0  0
  4  7  1  0  0  0  0
  5  6  2  0  0  0  0
  6  1  1  0  0  0  0
  6 34  1  0  0  0  0
  7  8  1  0  0  0  0
  7 11  1  0  0  0  0
  8  9  2  0  0  0  0
  8 35  1  0  0  0  0
  9  5  1  0  0  0  0
  9 16  1  0  0  0  0
 10 36  1  0  0  0  0
 10 37  1  0  0  0  0
 11 12  1  0  0  0  0
 11 13  1  0  0  0  0
 11 14  1  0  0  0  0
 12 38  1  0  0  0  0
 12 39  1  0  0  0  0
 12 40  1  0  0  0  0
 13 41  1  0  0  0  0
 13 42  1  0  0  0  0
 13 43  1  0  0  0  0
 14 15  1  0  0  0  0
 14 44  1  0  0  0  0
 14 45  1  0  0  0  0
 15 46  1  0  0  0  0
 16 17  2  0  0  0  0
 16 18  1  0  0  0  0
 18 19  2  0  0  0  0
 19 20  1  0  0  0  0
 19 47  1  0  0  0  0
 20 21  2  0  0  0  0
 21 22  1  0  0  0  0
 21 48  1  0  0  0  0
 22 23  2  0  0  0  0
 22 24  1  0  0  0  0
 23 18  1  0  0  0  0
 23 49  1  0  0  0  0
 24 25  1  0  0  0  0
 24 50  1  0  0  0  0
 25 26  1  0  0  0  0
 25 27  2  0  0  0  0
 26 28  1  0  0  0  0
 26 51  1  0  0  0  0
 26 52  1  0  0  0  0
 28 29  2  0  0  0  0
 29 30  1  0  0  0  0
 29 53  1  0  0  0  0
 30 31  2  0  0  0  0
 30 54  1  0  0  0  0
 31 32  1  0  0  0  0
 31 55  1  0  0  0  0
 32 33  2  0  0  0  0
 32 56  1  0  0  0  0
 33 28  1  0  0  0  0
M  END
>  <Mol_ID>
4142

>  <Formula>
C23H22ClN7O3

>  <MolWeight>
479.91888

>  <Cat>
S8407

>  <Name>
PF-06273340

>  <Synonyms>
N/A

>  <Target>
Trk receptor

>  <Form>
free base

>  <CAS>
1402438-74-7

>  <URL>
http://selleckchem.com/products/pf-06273340.html

$$$$
