PF-04691502.cdx
 OpenBabel08302521443D

 58 61  0  0  0  0  0  0  0  0999 V2000
   -4.4096    1.2457   -3.9626 N   0  0  0  0  0  0  0  0  0  0  0  0
   -3.1519    1.1587   -3.5342 C   0  0  0  0  0  0  0  0  0  0  0  0
   -2.7030    1.6686   -2.3883 N   0  0  0  0  0  0  0  0  0  0  0  0
   -3.5938    2.2828   -1.5867 C   0  0  0  0  0  0  0  0  0  0  0  0
   -4.9403    2.3883   -1.9245 C   0  0  0  0  0  0  0  0  0  0  0  0
   -5.3023    1.8528   -3.1529 C   0  0  0  0  0  0  0  0  0  0  0  0
   -3.1401    2.8222   -0.3284 N   0  0  0  0  0  0  0  0  0  0  0  0
   -4.0927    3.0237    0.6687 C   0  0  0  0  0  0  0  0  0  0  0  0
   -5.4660    3.3923    0.2044 C   0  0  0  0  0  0  0  0  0  0  0  0
   -5.8630    3.0773   -1.0350 C   0  0  0  0  0  0  0  0  0  0  0  0
   -6.3596    4.1556    1.0780 C   0  0  0  0  0  0  0  0  0  0  0  0
   -3.8886    2.9977    1.8794 O   0  0  0  0  0  0  0  0  0  0  0  0
   -7.1908    3.5460    2.0172 C   0  0  0  0  0  0  0  0  0  0  0  0
   -8.0321    4.3377    2.7979 C   0  0  0  0  0  0  0  0  0  0  0  0
   -8.0151    5.7117    2.6066 C   0  0  0  0  0  0  0  0  0  0  0  0
   -7.2148    6.3345    1.7155 N   0  0  0  0  0  0  0  0  0  0  0  0
   -6.3997    5.5443    0.9841 C   0  0  0  0  0  0  0  0  0  0  0  0
   -6.7116    1.9112   -3.6696 C   0  0  0  0  0  0  0  0  0  0  0  0
   -2.2407    0.5385   -4.3577 N   0  0  0  0  0  0  0  0  0  0  0  0
   -8.8841    6.4541    3.3800 O   0  0  0  0  0  0  0  0  0  0  0  0
   -8.8345    7.8458    3.0779 C   0  0  0  0  0  0  0  0  0  0  0  0
   -1.6648    2.8065   -0.0579 C   0  0  1  0  0  0  0  0  0  0  0  0
   -0.8445    3.6170   -1.1047 C   0  0  0  0  0  0  0  0  0  0  0  0
   -1.0362    5.1342   -0.9902 C   0  0  0  0  0  0  0  0  0  0  0  0
   -0.7517    5.6765    0.4148 C   0  0  1  0  0  0  0  0  0  0  0  0
   -1.4967    4.8556    1.4676 C   0  0  0  0  0  0  0  0  0  0  0  0
   -1.2228    3.3520    1.3222 C   0  0  0  0  0  0  0  0  0  0  0  0
    0.6463    5.6280    0.7325 O   0  0  0  0  0  0  0  0  0  0  0  0
    1.3867    6.7277    0.1822 C   0  0  0  0  0  0  0  0  0  0  0  0
    2.7771    6.7415    0.8125 C   0  0  0  0  0  0  0  0  0  0  0  0
    3.4371    5.5039    0.5559 O   0  0  0  0  0  0  0  0  0  0  0  0
   -6.8490    3.3496   -1.3951 H   0  0  0  0  0  0  0  0  0  0  0  0
   -7.1800    2.4680    2.1564 H   0  0  0  0  0  0  0  0  0  0  0  0
   -8.6876    3.8944    3.5392 H   0  0  0  0  0  0  0  0  0  0  0  0
   -5.7582    6.0811    0.2900 H   0  0  0  0  0  0  0  0  0  0  0  0
   -7.3889    1.3883   -2.9878 H   0  0  0  0  0  0  0  0  0  0  0  0
   -7.0366    2.9507   -3.7824 H   0  0  0  0  0  0  0  0  0  0  0  0
   -6.7884    1.4303   -4.6507 H   0  0  0  0  0  0  0  0  0  0  0  0
   -1.3049    0.8666   -4.1620 H   0  0  0  0  0  0  0  0  0  0  0  0
   -2.5552    0.5756   -5.3178 H   0  0  0  0  0  0  0  0  0  0  0  0
   -7.8452    8.2641    3.2948 H   0  0  0  0  0  0  0  0  0  0  0  0
   -9.1224    8.0367    2.0376 H   0  0  0  0  0  0  0  0  0  0  0  0
   -9.5591    8.3543    3.7205 H   0  0  0  0  0  0  0  0  0  0  0  0
   -1.3597    1.7531   -0.1045 H   0  0  0  0  0  0  0  0  0  0  0  0
    0.2199    3.3858   -0.9651 H   0  0  0  0  0  0  0  0  0  0  0  0
   -1.0697    3.3284   -2.1337 H   0  0  0  0  0  0  0  0  0  0  0  0
   -0.3829    5.6176   -1.7249 H   0  0  0  0  0  0  0  0  0  0  0  0
   -2.0669    5.3833   -1.2693 H   0  0  0  0  0  0  0  0  0  0  0  0
   -1.0982    6.7150    0.4863 H   0  0  0  0  0  0  0  0  0  0  0  0
   -1.1955    5.1720    2.4724 H   0  0  0  0  0  0  0  0  0  0  0  0
   -2.5666    5.0687    1.3743 H   0  0  0  0  0  0  0  0  0  0  0  0
   -1.6764    2.7907    2.1433 H   0  0  0  0  0  0  0  0  0  0  0  0
   -0.1444    3.1794    1.4383 H   0  0  0  0  0  0  0  0  0  0  0  0
    1.4749    6.5830   -0.8981 H   0  0  0  0  0  0  0  0  0  0  0  0
    0.8822    7.6764    0.3929 H   0  0  0  0  0  0  0  0  0  0  0  0
    3.3845    7.5501    0.3952 H   0  0  0  0  0  0  0  0  0  0  0  0
    2.7145    6.8704    1.8979 H   0  0  0  0  0  0  0  0  0  0  0  0
    2.7600    4.8176    0.7166 H   0  0  0  0  0  0  0  0  0  0  0  0
  1  2  2  0  0  0  0
  2  3  1  0  0  0  0
  2 19  1  0  0  0  0
  3  4  2  0  0  0  0
  4  5  1  0  0  0  0
  4  7  1  0  0  0  0
  5  6  2  0  0  0  0
  6  1  1  0  0  0  0
  6 18  1  0  0  0  0
  7  8  1  0  0  0  0
  8  9  1  0  0  0  0
  8 12  2  0  0  0  0
  9 10  2  0  0  0  0
  9 11  1  0  0  0  0
 10  5  1  0  0  0  0
 10 32  1  0  0  0  0
 11 13  2  0  0  0  0
 13 14  1  0  0  0  0
 13 33  1  0  0  0  0
 14 15  2  0  0  0  0
 14 34  1  0  0  0  0
 15 16  1  0  0  0  0
 15 20  1  0  0  0  0
 16 17  2  0  0  0  0
 17 11  1  0  0  0  0
 17 35  1  0  0  0  0
 18 36  1  0  0  0  0
 18 37  1  0  0  0  0
 18 38  1  0  0  0  0
 19 39  1  0  0  0  0
 19 40  1  0  0  0  0
 20 21  1  0  0  0  0
 21 41  1  0  0  0  0
 21 42  1  0  0  0  0
 21 43  1  0  0  0  0
 22 23  1  0  0  0  0
 22 44  1  6  0  0  0
 22  7  1  0  0  0  0
 23 24  1  0  0  0  0
 23 45  1  0  0  0  0
 23 46  1  0  0  0  0
 24 25  1  0  0  0  0
 24 47  1  0  0  0  0
 24 48  1  0  0  0  0
 25 26  1  0  0  0  0
 25 28  1  0  0  0  0
 25 49  1  1  0  0  0
 26 27  1  0  0  0  0
 26 50  1  0  0  0  0
 26 51  1  0  0  0  0
 27 22  1  0  0  0  0
 27 52  1  0  0  0  0
 27 53  1  0  0  0  0
 28 29  1  0  0  0  0
 29 30  1  0  0  0  0
 29 54  1  0  0  0  0
 29 55  1  0  0  0  0
 30 31  1  0  0  0  0
 30 56  1  0  0  0  0
 30 57  1  0  0  0  0
 31 58  1  0  0  0  0
M  END
>  <Mol_ID>
904

>  <Formula>
C22H27N5O4

>  <MolWeight>
425.48088

>  <Cat>
S2743

>  <Name>
PF-04691502

>  <Synonyms>
PF4691502

>  <Target>
Akt,Apoptosis related,mTOR,PI3K

>  <Form>
free base

>  <CAS>
1013101-36-4

>  <URL>
http://selleckchem.com/products/pf-04691502.html

$$$$
