PF-04620110.cdx
 OpenBabel08302519583D

 53 56  0  0  0  0  0  0  0  0999 V2000
    6.3677    2.3785   -0.0268 N   0  0  0  0  0  0  0  0  0  0  0  0
    6.3716    2.5560    1.3024 C   0  0  0  0  0  0  0  0  0  0  0  0
    5.3755    2.2437    2.1397 N   0  0  0  0  0  0  0  0  0  0  0  0
    4.2880    1.7045    1.5612 C   0  0  0  0  0  0  0  0  0  0  0  0
    4.1811    1.4571    0.2103 C   0  0  0  0  0  0  0  0  0  0  0  0
    5.2685    1.8212   -0.5637 C   0  0  0  0  0  0  0  0  0  0  0  0
    3.2835    1.3874    2.4384 O   0  0  0  0  0  0  0  0  0  0  0  0
    2.1628    2.2543    2.2356 C   0  0  0  0  0  0  0  0  0  0  0  0
    1.2385    1.7036    1.1529 C   0  0  0  0  0  0  0  0  0  0  0  0
    1.8124    1.6513   -0.1882 N   0  0  0  0  0  0  0  0  0  0  0  0
    2.9663    0.8968   -0.3962 C   0  0  0  0  0  0  0  0  0  0  0  0
    3.0501   -0.0699   -1.1477 O   0  0  0  0  0  0  0  0  0  0  0  0
    5.2480    1.7690   -1.9573 N   0  0  0  0  0  0  0  0  0  0  0  0
    1.5517    2.6881   -1.1307 C   0  0  0  0  0  0  0  0  0  0  0  0
    1.5090    2.3778   -2.4946 C   0  0  0  0  0  0  0  0  0  0  0  0
    1.2666    3.3730   -3.4456 C   0  0  0  0  0  0  0  0  0  0  0  0
    1.1062    4.7084   -3.0551 C   0  0  0  0  0  0  0  0  0  0  0  0
    1.1808    5.0179   -1.6911 C   0  0  0  0  0  0  0  0  0  0  0  0
    1.3768    4.0159   -0.7364 C   0  0  0  0  0  0  0  0  0  0  0  0
    0.8360    5.8139   -4.0606 C   0  0  2  0  0  0  0  0  0  0  0  0
   -0.5028    5.6043   -4.7785 C   0  0  0  0  0  0  0  0  0  0  0  0
   -0.7855    6.7295   -5.7715 C   0  0  0  0  0  0  0  0  0  0  0  0
    0.3519    6.8890   -6.7951 C   0  0  2  0  0  0  0  0  0  0  0  0
    1.6948    7.0932   -6.0721 C   0  0  0  0  0  0  0  0  0  0  0  0
    1.9850    5.9733   -5.0717 C   0  0  0  0  0  0  0  0  0  0  0  0
    0.0853    8.0647   -7.7496 C   0  0  0  0  0  0  0  0  0  0  0  0
   -1.1429    7.8543   -8.6084 C   0  0  0  0  0  0  0  0  0  0  0  0
   -1.7392    9.0140   -8.9673 O   0  0  0  0  0  0  0  0  0  0  0  0
   -1.5561    6.7683   -8.9825 O   0  0  0  0  0  0  0  0  0  0  0  0
    7.2605    3.0013    1.7368 H   0  0  0  0  0  0  0  0  0  0  0  0
    2.4812    3.2855    2.0409 H   0  0  0  0  0  0  0  0  0  0  0  0
    1.6091    2.2705    3.1817 H   0  0  0  0  0  0  0  0  0  0  0  0
    0.9924    0.6641    1.4063 H   0  0  0  0  0  0  0  0  0  0  0  0
    0.2937    2.2580    1.1234 H   0  0  0  0  0  0  0  0  0  0  0  0
    4.8726    0.8885   -2.3045 H   0  0  0  0  0  0  0  0  0  0  0  0
    6.1652    1.9996   -2.3225 H   0  0  0  0  0  0  0  0  0  0  0  0
    1.6237    1.3484   -2.8294 H   0  0  0  0  0  0  0  0  0  0  0  0
    1.2005    3.0881   -4.4935 H   0  0  0  0  0  0  0  0  0  0  0  0
    1.0921    6.0491   -1.3565 H   0  0  0  0  0  0  0  0  0  0  0  0
    1.4506    4.3155    0.3022 H   0  0  0  0  0  0  0  0  0  0  0  0
    0.7646    6.7610   -3.5095 H   0  0  0  0  0  0  0  0  0  0  0  0
   -0.5117    4.6473   -5.3155 H   0  0  0  0  0  0  0  0  0  0  0  0
   -1.3177    5.5584   -4.0455 H   0  0  0  0  0  0  0  0  0  0  0  0
   -1.7312    6.5141   -6.2808 H   0  0  0  0  0  0  0  0  0  0  0  0
   -0.9282    7.6692   -5.2235 H   0  0  0  0  0  0  0  0  0  0  0  0
    0.4193    5.9631   -7.3824 H   0  0  0  0  0  0  0  0  0  0  0  0
    2.5099    7.1415   -6.8041 H   0  0  0  0  0  0  0  0  0  0  0  0
    1.6901    8.0547   -5.5436 H   0  0  0  0  0  0  0  0  0  0  0  0
    2.9223    6.1937   -4.5441 H   0  0  0  0  0  0  0  0  0  0  0  0
    2.1510    5.0400   -5.6239 H   0  0  0  0  0  0  0  0  0  0  0  0
   -0.0313    8.9835   -7.1636 H   0  0  0  0  0  0  0  0  0  0  0  0
    0.9328    8.2027   -8.4313 H   0  0  0  0  0  0  0  0  0  0  0  0
   -1.3012    9.8144   -8.6227 H   0  0  0  0  0  0  0  0  0  0  0  0
  1  2  2  0  0  0  0
  2  3  1  0  0  0  0
  2 30  1  0  0  0  0
  3  4  2  0  0  0  0
  4  5  1  0  0  0  0
  4  7  1  0  0  0  0
  5  6  2  0  0  0  0
  6  1  1  0  0  0  0
  6 13  1  0  0  0  0
  7  8  1  0  0  0  0
  8  9  1  0  0  0  0
  8 31  1  0  0  0  0
  8 32  1  0  0  0  0
  9 10  1  0  0  0  0
  9 33  1  0  0  0  0
  9 34  1  0  0  0  0
 10 11  1  0  0  0  0
 10 14  1  0  0  0  0
 11  5  1  0  0  0  0
 11 12  2  0  0  0  0
 13 35  1  0  0  0  0
 13 36  1  0  0  0  0
 14 15  2  0  0  0  0
 15 16  1  0  0  0  0
 15 37  1  0  0  0  0
 16 17  2  0  0  0  0
 16 38  1  0  0  0  0
 17 18  1  0  0  0  0
 18 19  2  0  0  0  0
 18 39  1  0  0  0  0
 19 14  1  0  0  0  0
 19 40  1  0  0  0  0
 20 17  1  0  0  0  0
 20 21  1  0  0  0  0
 20 41  1  1  0  0  0
 21 22  1  0  0  0  0
 21 42  1  0  0  0  0
 21 43  1  0  0  0  0
 22 23  1  0  0  0  0
 22 44  1  0  0  0  0
 22 45  1  0  0  0  0
 23 24  1  0  0  0  0
 23 46  1  6  0  0  0
 23 26  1  0  0  0  0
 24 25  1  0  0  0  0
 24 47  1  0  0  0  0
 24 48  1  0  0  0  0
 25 20  1  0  0  0  0
 25 49  1  0  0  0  0
 25 50  1  0  0  0  0
 26 27  1  0  0  0  0
 26 51  1  0  0  0  0
 26 52  1  0  0  0  0
 27 28  1  0  0  0  0
 27 29  2  0  0  0  0
 28 53  1  0  0  0  0
M  END
>  <Mol_ID>
2427

>  <Formula>
C21H24N4O4

>  <MolWeight>
396.43966

>  <Cat>
S7192

>  <Name>
PF-04620110

>  <Synonyms>
N/A

>  <Target>
Acyltransferase,Transferase

>  <Form>
free base

>  <CAS>
1109276-89-2

>  <URL>
http://selleckchem.com/products/pf-04620110.html

$$$$
