PF-3644022
 OpenBabel08302521343D

 45 49  0  0  0  0  0  0  0  0999 V2000
   -0.1928   -2.1508   -0.0170 S   0  0  0  0  0  0  0  0  0  0  0  0
    2.7891   -2.0900   -1.3695 O   0  0  0  0  0  0  0  0  0  0  0  0
    1.6219    1.1167   -0.8042 N   0  0  0  0  0  0  0  0  0  0  0  0
    3.1515   -0.8052    0.5461 N   0  0  0  0  0  0  0  0  0  0  0  0
   -1.1225    3.8142   -0.6823 N   0  0  0  0  0  0  0  0  0  0  0  0
    0.3765    7.9174   -0.7337 N   0  0  0  0  0  0  0  0  0  0  0  0
    3.4926    0.6120    0.4090 C   0  0  1  0  0  0  0  0  0  0  0  0
    0.6414    0.2169   -0.5242 C   0  0  0  0  0  0  0  0  0  0  0  0
   -0.7107    0.2344   -0.2790 C   0  0  0  0  0  0  0  0  0  0  0  0
    2.3200    1.5495    0.4672 C   0  0  0  0  0  0  0  0  0  0  0  0
    1.0178   -1.0448   -0.3523 C   0  0  0  0  0  0  0  0  0  0  0  0
   -1.3530   -0.9564    0.0169 C   0  0  0  0  0  0  0  0  0  0  0  0
   -1.6809    1.1170   -0.2024 C   0  0  0  0  0  0  0  0  0  0  0  0
    2.3715   -1.4091   -0.4462 C   0  0  0  0  0  0  0  0  0  0  0  0
   -2.2388    2.1420   -0.2518 C   0  0  0  0  0  0  0  0  0  0  0  0
    4.5235    1.0716    1.3849 C   0  0  0  0  0  0  0  0  0  0  0  0
   -2.7228   -0.9616    0.2727 C   0  0  0  0  0  0  0  0  0  0  0  0
   -3.2396    0.6174    0.1391 C   0  0  0  0  0  0  0  0  0  0  0  0
   -1.5607    2.2576   -0.3086 C   0  0  0  0  0  0  0  0  0  0  0  0
    0.0624    4.3268   -0.8090 C   0  0  0  0  0  0  0  0  0  0  0  0
   -0.0322    3.1103   -0.5913 C   0  0  0  0  0  0  0  0  0  0  0  0
   -0.4877    5.6459   -0.7891 C   0  0  0  0  0  0  0  0  0  0  0  0
   -1.6245    6.0684   -0.1450 C   0  0  0  0  0  0  0  0  0  0  0  0
    0.4715    6.6320   -1.0609 C   0  0  0  0  0  0  0  0  0  0  0  0
   -1.5711    7.2943    0.5069 C   0  0  0  0  0  0  0  0  0  0  0  0
   -0.6677    8.2421    0.0452 C   0  0  0  0  0  0  0  0  0  0  0  0
   -0.8798    9.6989    0.3258 C   0  0  0  0  0  0  0  0  0  0  0  0
    1.4996    1.8469   -1.5365 H   0  0  0  0  0  0  0  0  0  0  0  0
    3.3903   -1.3118    1.3917 H   0  0  0  0  0  0  0  0  0  0  0  0
    3.8317    0.7135   -0.6284 H   0  0  0  0  0  0  0  0  0  0  0  0
    1.7321    1.4002    1.4033 H   0  0  0  0  0  0  0  0  0  0  0  0
    2.6363    2.6166    0.4882 H   0  0  0  0  0  0  0  0  0  0  0  0
    4.7061    2.1486    1.2942 H   0  0  0  0  0  0  0  0  0  0  0  0
    4.2062    0.8616    2.4084 H   0  0  0  0  0  0  0  0  0  0  0  0
    5.4413    0.5355    1.1675 H   0  0  0  0  0  0  0  0  0  0  0  0
   -3.1762   -1.9574    0.4624 H   0  0  0  0  0  0  0  0  0  0  0  0
   -4.3291    0.2782    0.3977 H   0  0  0  0  0  0  0  0  0  0  0  0
   -2.5330    3.5424   -0.3595 H   0  0  0  0  0  0  0  0  0  0  0  0
    0.6618    2.4428   -0.3723 H   0  0  0  0  0  0  0  0  0  0  0  0
   -2.5164    5.4671   -0.1663 H   0  0  0  0  0  0  0  0  0  0  0  0
    1.4445    6.2862   -1.4588 H   0  0  0  0  0  0  0  0  0  0  0  0
   -2.2093    7.5024    1.3575 H   0  0  0  0  0  0  0  0  0  0  0  0
   -1.8530   10.0308   -0.0609 H   0  0  0  0  0  0  0  0  0  0  0  0
   -0.8484    9.8953    1.3975 H   0  0  0  0  0  0  0  0  0  0  0  0
   -0.1116   10.3086   -0.1635 H   0  0  0  0  0  0  0  0  0  0  0  0
  1 11  1  0  0  0  0
  1 12  1  0  0  0  0
  2 14  2  0  0  0  0
  3  8  1  0  0  0  0
  3 10  1  0  0  0  0
  3 28  1  0  0  0  0
  4  7  1  0  0  0  0
  4 14  1  0  0  0  0
  4 29  1  0  0  0  0
  5 15  1  0  0  0  0
  5 20  2  0  0  0  0
  6 24  2  0  0  0  0
  6 26  1  0  0  0  0
  7 10  1  0  0  0  0
  7 30  1  6  0  0  0
  7 16  1  0  0  0  0
  8  9  1  0  0  0  0
  8 11  2  0  0  0  0
  9 12  2  0  0  0  0
  9 13  1  0  0  0  0
 10 31  1  0  0  0  0
 10 32  1  0  0  0  0
 11 14  1  0  0  0  0
 12 17  1  0  0  0  0
 13 15  2  0  0  0  0
 13 19  1  0  0  0  0
 15 18  1  0  0  0  0
 16 33  1  0  0  0  0
 16 34  1  0  0  0  0
 16 35  1  0  0  0  0
 17 18  2  0  0  0  0
 17 36  1  0  0  0  0
 18 37  1  0  0  0  0
 19 21  2  0  0  0  0
 19 38  1  0  0  0  0
 20 21  1  0  0  0  0
 20 22  1  0  0  0  0
 21 39  1  0  0  0  0
 22 23  2  0  0  0  0
 22 24  1  0  0  0  0
 23 25  1  0  0  0  0
 23 40  1  0  0  0  0
 24 41  1  0  0  0  0
 25 26  2  0  0  0  0
 25 42  1  0  0  0  0
 26 27  1  0  0  0  0
 27 43  1  0  0  0  0
 27 44  1  0  0  0  0
 27 45  1  0  0  0  0
M  END
>  <Mol_ID>
6598

>  <Formula>
C21H18N4OS

>  <MolWeight>
374.45882

>  <Cat>
S8224

>  <Name>
PF-3644022

>  <Synonyms>
N/A

>  <Target>
MAPKAPK2,TNF-alpha

>  <Form>
Free base

>  <CAS>
1276121-88-0

>  <URL>
http://www.selleckchem.com/products/pf-3644022.html

$$$$
