PF-3758309.cdx
 OpenBabel08302519583D

 65 69  0  0  0  0  0  0  0  0999 V2000
   -7.7544   -6.0432   -6.7106 C   0  0  0  0  0  0  0  0  0  0  0  0
   -7.3442   -7.0296   -5.8271 C   0  0  0  0  0  0  0  0  0  0  0  0
   -6.6384   -6.7570   -4.7055 N   0  0  0  0  0  0  0  0  0  0  0  0
   -6.3680   -5.4562   -4.5201 C   0  0  0  0  0  0  0  0  0  0  0  0
   -6.7910   -4.4356   -5.2956 N   0  0  0  0  0  0  0  0  0  0  0  0
   -7.5313   -4.6971   -6.3978 C   0  0  0  0  0  0  0  0  0  0  0  0
   -8.5313   -6.7228   -8.0913 S   0  0  0  0  0  0  0  0  0  0  0  0
   -8.4435   -8.2990   -7.4469 C   0  0  0  0  0  0  0  0  0  0  0  0
   -7.8025   -8.3202   -6.2287 C   0  0  0  0  0  0  0  0  0  0  0  0
   -8.1217   -3.6979   -7.1838 N   0  0  0  0  0  0  0  0  0  0  0  0
   -5.5190   -5.1138   -3.3300 C   0  0  0  0  0  0  0  0  0  0  0  0
   -8.2516   -2.3782   -7.0321 C   0  0  0  0  0  0  0  0  0  0  0  0
   -7.4511   -1.5015   -6.3216 C   0  0  0  0  0  0  0  0  0  0  0  0
   -7.9686   -0.2535   -6.5613 C   0  0  0  0  0  0  0  0  0  0  0  0
   -9.1222   -0.4251   -7.2273 N   0  0  0  0  0  0  0  0  0  0  0  0
   -9.2667   -1.7121   -7.6200 N   0  0  0  0  0  0  0  0  0  0  0  0
   -6.3350   -1.3795   -5.3563 C   0  0  0  0  0  0  0  0  0  0  0  0
   -6.7490   -0.0594   -4.7374 N   0  0  0  0  0  0  0  0  0  0  0  0
   -7.2623    0.8379   -5.8454 C   0  0  0  0  0  0  0  0  0  0  0  0
   -7.4988   -0.0677   -3.5349 C   0  0  0  0  0  0  0  0  0  0  0  0
   -7.8301    0.9613   -2.9511 O   0  0  0  0  0  0  0  0  0  0  0  0
   -7.8704   -1.3136   -3.0942 N   0  0  0  0  0  0  0  0  0  0  0  0
   -8.9088   -1.5733   -2.0958 C   0  0  2  0  0  0  0  0  0  0  0  0
   -8.5514   -1.1919   -0.6218 C   0  0  0  0  0  0  0  0  0  0  0  0
   -7.4391   -1.9116    0.0491 N   0  0  0  0  0  0  0  0  0  0  0  0
   -6.1370   -1.5661   -0.5167 C   0  0  0  0  0  0  0  0  0  0  0  0
   -7.4516   -1.6414    1.4864 C   0  0  0  0  0  0  0  0  0  0  0  0
   -9.3521   -3.0294   -2.2733 C   0  0  0  0  0  0  0  0  0  0  0  0
  -10.5429   -3.3412   -2.9518 C   0  0  0  0  0  0  0  0  0  0  0  0
  -10.8597   -4.6696   -3.2588 C   0  0  0  0  0  0  0  0  0  0  0  0
  -10.0036   -5.7027   -2.8872 C   0  0  0  0  0  0  0  0  0  0  0  0
   -8.8387   -5.4142   -2.1945 C   0  0  0  0  0  0  0  0  0  0  0  0
   -8.5154   -4.0911   -1.9010 C   0  0  0  0  0  0  0  0  0  0  0  0
   -6.0982    1.3347   -6.7418 C   0  0  0  0  0  0  0  0  0  0  0  0
   -8.1362    2.0402   -5.5053 C   0  0  0  0  0  0  0  0  0  0  0  0
   -8.8724   -9.1296   -7.9903 H   0  0  0  0  0  0  0  0  0  0  0  0
   -7.6635   -9.2195   -5.6439 H   0  0  0  0  0  0  0  0  0  0  0  0
   -8.7910   -4.0987   -7.8396 H   0  0  0  0  0  0  0  0  0  0  0  0
   -5.9715   -5.4927   -2.4100 H   0  0  0  0  0  0  0  0  0  0  0  0
   -4.5321   -5.5731   -3.4299 H   0  0  0  0  0  0  0  0  0  0  0  0
   -5.3946   -4.0318   -3.2299 H   0  0  0  0  0  0  0  0  0  0  0  0
   -9.8671    0.2360   -7.4274 H   0  0  0  0  0  0  0  0  0  0  0  0
   -6.2045   -2.1605   -4.6143 H   0  0  0  0  0  0  0  0  0  0  0  0
   -5.3754   -1.2361   -5.8624 H   0  0  0  0  0  0  0  0  0  0  0  0
   -7.8762   -2.0329   -3.7960 H   0  0  0  0  0  0  0  0  0  0  0  0
   -9.7571   -0.9321   -2.3737 H   0  0  0  0  0  0  0  0  0  0  0  0
   -8.3780   -0.1096   -0.5610 H   0  0  0  0  0  0  0  0  0  0  0  0
   -9.4658   -1.3866   -0.0413 H   0  0  0  0  0  0  0  0  0  0  0  0
   -5.9280   -0.4933   -0.4607 H   0  0  0  0  0  0  0  0  0  0  0  0
   -5.3421   -2.1040    0.0122 H   0  0  0  0  0  0  0  0  0  0  0  0
   -6.0501   -1.8912   -1.5560 H   0  0  0  0  0  0  0  0  0  0  0  0
   -7.3684   -0.5720    1.7079 H   0  0  0  0  0  0  0  0  0  0  0  0
   -8.3728   -2.0230    1.9408 H   0  0  0  0  0  0  0  0  0  0  0  0
   -6.6254   -2.1627    1.9834 H   0  0  0  0  0  0  0  0  0  0  0  0
  -11.2163   -2.5533   -3.2780 H   0  0  0  0  0  0  0  0  0  0  0  0
  -11.7710   -4.8964   -3.8053 H   0  0  0  0  0  0  0  0  0  0  0  0
  -10.2265   -6.7316   -3.1626 H   0  0  0  0  0  0  0  0  0  0  0  0
   -8.1565   -6.2149   -1.9221 H   0  0  0  0  0  0  0  0  0  0  0  0
   -7.5626   -3.8931   -1.4186 H   0  0  0  0  0  0  0  0  0  0  0  0
   -6.4821    1.8340   -7.6413 H   0  0  0  0  0  0  0  0  0  0  0  0
   -5.4581    2.0391   -6.2019 H   0  0  0  0  0  0  0  0  0  0  0  0
   -5.4514    0.5266   -7.1035 H   0  0  0  0  0  0  0  0  0  0  0  0
   -8.4688    2.5439   -6.4230 H   0  0  0  0  0  0  0  0  0  0  0  0
   -9.0421    1.7749   -4.9545 H   0  0  0  0  0  0  0  0  0  0  0  0
   -7.5715    2.7773   -4.9223 H   0  0  0  0  0  0  0  0  0  0  0  0
  1  2  1  0  0  0  0
  1  7  1  0  0  0  0
  2  3  2  0  0  0  0
  3  4  1  0  0  0  0
  4  5  2  0  0  0  0
  4 11  1  0  0  0  0
  5  6  1  0  0  0  0
  6  1  2  0  0  0  0
  6 10  1  0  0  0  0
  7  8  1  0  0  0  0
  8  9  2  0  0  0  0
  8 36  1  0  0  0  0
  9  2  1  0  0  0  0
  9 37  1  0  0  0  0
 10 12  1  0  0  0  0
 10 38  1  0  0  0  0
 11 39  1  0  0  0  0
 11 40  1  0  0  0  0
 11 41  1  0  0  0  0
 12 13  1  0  0  0  0
 13 14  2  0  0  0  0
 13 17  1  0  0  0  0
 14 15  1  0  0  0  0
 15 16  1  0  0  0  0
 15 42  1  0  0  0  0
 16 12  2  0  0  0  0
 17 18  1  0  0  0  0
 17 43  1  0  0  0  0
 17 44  1  0  0  0  0
 18 19  1  0  0  0  0
 18 20  1  0  0  0  0
 19 14  1  0  0  0  0
 19 34  1  0  0  0  0
 19 35  1  0  0  0  0
 20 21  2  0  0  0  0
 20 22  1  0  0  0  0
 22 45  1  0  0  0  0
 23 28  1  0  0  0  0
 23 46  1  6  0  0  0
 23 24  1  0  0  0  0
 23 22  1  0  0  0  0
 24 25  1  0  0  0  0
 24 47  1  0  0  0  0
 24 48  1  0  0  0  0
 25 26  1  0  0  0  0
 25 27  1  0  0  0  0
 26 49  1  0  0  0  0
 26 50  1  0  0  0  0
 26 51  1  0  0  0  0
 27 52  1  0  0  0  0
 27 53  1  0  0  0  0
 27 54  1  0  0  0  0
 28 29  2  0  0  0  0
 29 30  1  0  0  0  0
 29 55  1  0  0  0  0
 30 31  2  0  0  0  0
 30 56  1  0  0  0  0
 31 32  1  0  0  0  0
 31 57  1  0  0  0  0
 32 33  2  0  0  0  0
 32 58  1  0  0  0  0
 33 28  1  0  0  0  0
 33 59  1  0  0  0  0
 34 60  1  0  0  0  0
 34 61  1  0  0  0  0
 34 62  1  0  0  0  0
 35 63  1  0  0  0  0
 35 64  1  0  0  0  0
 35 65  1  0  0  0  0
M  END
>  <Mol_ID>
2434

>  <Formula>
C25H30N8OS

>  <MolWeight>
490.6237

>  <Cat>
S7094

>  <Name>
PF-3758309

>  <Synonyms>
PF-03758309

>  <Target>
Apoptosis related,PAK

>  <Form>
free base

>  <CAS>
898044-15-0

>  <URL>
http://selleckchem.com/products/pf-3758309.html

$$$$
