PF-5274857.cdx
 OpenBabel08302521313D

 54 56  0  0  0  0  0  0  0  0999 V2000
   -0.0946   -4.1831   -4.3233 C   0  0  0  0  0  0  0  0  0  0  0  0
   -1.0969   -5.0817   -3.9737 C   0  0  0  0  0  0  0  0  0  0  0  0
   -2.0215   -4.7802   -2.9590 C   0  0  0  0  0  0  0  0  0  0  0  0
   -1.8740   -3.5595   -2.2794 C   0  0  0  0  0  0  0  0  0  0  0  0
   -0.9119   -2.6644   -2.6321 N   0  0  0  0  0  0  0  0  0  0  0  0
   -0.0600   -2.9853   -3.6301 C   0  0  0  0  0  0  0  0  0  0  0  0
    0.8899   -4.5055   -5.3969 C   0  0  0  0  0  0  0  0  0  0  0  0
   -3.0763   -5.8140   -2.6822 C   0  0  0  0  0  0  0  0  0  0  0  0
   -2.6941   -3.0996   -1.1335 C   0  0  0  0  0  0  0  0  0  0  0  0
   -3.1551   -3.9723   -0.1303 C   0  0  0  0  0  0  0  0  0  0  0  0
   -3.9379   -3.5195    0.9259 C   0  0  0  0  0  0  0  0  0  0  0  0
   -4.2086   -2.2023    1.0493 N   0  0  0  0  0  0  0  0  0  0  0  0
   -3.7410   -1.3486    0.1168 C   0  0  0  0  0  0  0  0  0  0  0  0
   -3.0030   -1.7428   -0.9790 C   0  0  0  0  0  0  0  0  0  0  0  0
   -4.4691   -4.3714    1.8659 N   0  0  0  0  0  0  0  0  0  0  0  0
   -4.6948   -3.8473    3.2161 C   0  0  0  0  0  0  0  0  0  0  0  0
   -3.7276   -4.5434    4.1923 C   0  0  0  0  0  0  0  0  0  0  0  0
   -3.8350   -6.0111    4.1123 N   0  0  0  0  0  0  0  0  0  0  0  0
   -3.7184   -6.5540    2.7433 C   0  0  0  0  0  0  0  0  0  0  0  0
   -4.6140   -5.8201    1.7292 C   0  0  0  0  0  0  0  0  0  0  0  0
   -3.6940   -6.8843    5.1766 C   0  0  0  0  0  0  0  0  0  0  0  0
   -3.7410   -8.1049    5.0239 O   0  0  0  0  0  0  0  0  0  0  0  0
   -3.5378   -6.3219    6.5737 C   0  0  0  0  0  0  0  0  0  0  0  0
   -4.8502   -5.9304    7.2209 C   0  0  0  0  0  0  0  0  0  0  0  0
   -5.8852   -7.2850    7.7481 S   0  0  0  0  0  0  0  0  0  0  0  0
   -6.5313   -8.0309    6.2646 C   0  0  0  0  0  0  0  0  0  0  0  0
   -5.0593   -8.2539    8.4387 O   0  0  0  0  0  0  0  0  0  0  0  0
   -7.0136   -6.6770    8.4297 O   0  0  0  0  0  0  0  0  0  0  0  0
   -1.1637   -6.0345   -4.4977 H   0  0  0  0  0  0  0  0  0  0  0  0
    0.6792   -2.2202   -3.8558 H   0  0  0  0  0  0  0  0  0  0  0  0
    1.4422   -5.4155   -5.1391 H   0  0  0  0  0  0  0  0  0  0  0  0
    0.3725   -4.6579   -6.3491 H   0  0  0  0  0  0  0  0  0  0  0  0
    1.6181   -3.6995   -5.5326 H   0  0  0  0  0  0  0  0  0  0  0  0
   -3.4752   -6.2083   -3.6242 H   0  0  0  0  0  0  0  0  0  0  0  0
   -2.6432   -6.6426   -2.1135 H   0  0  0  0  0  0  0  0  0  0  0  0
   -3.9384   -5.4190   -2.1406 H   0  0  0  0  0  0  0  0  0  0  0  0
   -2.8548   -5.0122   -0.1621 H   0  0  0  0  0  0  0  0  0  0  0  0
   -3.9835   -0.3031    0.2819 H   0  0  0  0  0  0  0  0  0  0  0  0
   -2.6538   -1.0040   -1.6924 H   0  0  0  0  0  0  0  0  0  0  0  0
   -4.5612   -2.7634    3.3064 H   0  0  0  0  0  0  0  0  0  0  0  0
   -5.7294   -4.0648    3.5090 H   0  0  0  0  0  0  0  0  0  0  0  0
   -2.6890   -4.2893    3.9460 H   0  0  0  0  0  0  0  0  0  0  0  0
   -3.9297   -4.1845    5.2016 H   0  0  0  0  0  0  0  0  0  0  0  0
   -2.6657   -6.4448    2.4529 H   0  0  0  0  0  0  0  0  0  0  0  0
   -3.9494   -7.6244    2.7247 H   0  0  0  0  0  0  0  0  0  0  0  0
   -5.6606   -6.0763    1.9383 H   0  0  0  0  0  0  0  0  0  0  0  0
   -4.4166   -6.1841    0.7158 H   0  0  0  0  0  0  0  0  0  0  0  0
   -3.0030   -7.0639    7.1769 H   0  0  0  0  0  0  0  0  0  0  0  0
   -2.8689   -5.4552    6.5323 H   0  0  0  0  0  0  0  0  0  0  0  0
   -4.6252   -5.3819    8.1462 H   0  0  0  0  0  0  0  0  0  0  0  0
   -5.4631   -5.2788    6.5942 H   0  0  0  0  0  0  0  0  0  0  0  0
   -5.9911   -8.9562    6.0650 H   0  0  0  0  0  0  0  0  0  0  0  0
   -7.5893   -8.2504    6.4269 H   0  0  0  0  0  0  0  0  0  0  0  0
   -6.4396   -7.3308    5.4345 H   0  0  0  0  0  0  0  0  0  0  0  0
  1  2  2  0  0  0  0
  1  7  1  0  0  0  0
  2  3  1  0  0  0  0
  2 29  1  0  0  0  0
  3  4  2  0  0  0  0
  3  8  1  0  0  0  0
  4  5  1  0  0  0  0
  4  9  1  0  0  0  0
  5  6  2  0  0  0  0
  6  1  1  0  0  0  0
  6 30  1  0  0  0  0
  7 31  1  0  0  0  0
  7 32  1  0  0  0  0
  7 33  1  0  0  0  0
  8 34  1  0  0  0  0
  8 35  1  0  0  0  0
  8 36  1  0  0  0  0
  9 10  2  0  0  0  0
 10 11  1  0  0  0  0
 10 37  1  0  0  0  0
 11 12  2  0  0  0  0
 11 15  1  0  0  0  0
 12 13  1  0  0  0  0
 13 14  2  0  0  0  0
 13 38  1  0  0  0  0
 14  9  1  0  0  0  0
 14 39  1  0  0  0  0
 15 16  1  0  0  0  0
 16 17  1  0  0  0  0
 16 40  1  0  0  0  0
 16 41  1  0  0  0  0
 17 18  1  0  0  0  0
 17 42  1  0  0  0  0
 17 43  1  0  0  0  0
 18 19  1  0  0  0  0
 18 21  1  0  0  0  0
 19 20  1  0  0  0  0
 19 44  1  0  0  0  0
 19 45  1  0  0  0  0
 20 15  1  0  0  0  0
 20 46  1  0  0  0  0
 20 47  1  0  0  0  0
 21 22  2  0  0  0  0
 21 23  1  0  0  0  0
 23 24  1  0  0  0  0
 23 48  1  0  0  0  0
 23 49  1  0  0  0  0
 24 25  1  0  0  0  0
 24 50  1  0  0  0  0
 24 51  1  0  0  0  0
 25 26  1  0  0  0  0
 25 27  2  0  0  0  0
 25 28  2  0  0  0  0
 26 52  1  0  0  0  0
 26 53  1  0  0  0  0
 26 54  1  0  0  0  0
M  END
>  <Mol_ID>
555

>  <Formula>
C20H25ClN4O3S

>  <MolWeight>
436.9555

>  <Cat>
S2777

>  <Name>
PF-5274857

>  <Synonyms>
N/A

>  <Target>
Hedgehog/Smoothened

>  <Form>
free base

>  <CAS>
1373615-35-0

>  <URL>
http://selleckchem.com/products/pf-5274857.html

$$$$
