PF-9366
 OpenBabel08302521243D

 44 47  0  0  0  0  0  0  0  0999 V2000
    0.8491    0.4763    0.4371 N   0  0  0  0  0  0  0  0  0  0  0  0
    1.1320    5.2552    1.0281 N   0  0  0  0  0  0  0  0  0  0  0  0
    2.9794    1.0390    0.4996 N   0  0  0  0  0  0  0  0  0  0  0  0
    2.9086   -0.3245    0.4985 N   0  0  0  0  0  0  0  0  0  0  0  0
   -0.5686    0.4142    0.4475 C   0  0  0  0  0  0  0  0  0  0  0  0
    1.7555    1.5243    0.3914 C   0  0  0  0  0  0  0  0  0  0  0  0
   -1.1495   -0.8675    0.3007 C   0  0  0  0  0  0  0  0  0  0  0  0
    1.4871    2.9565    0.0793 C   0  0  0  0  0  0  0  0  0  0  0  0
    1.6422   -0.6614    0.4093 C   0  0  0  0  0  0  0  0  0  0  0  0
   -0.2930   -2.0809    0.2120 C   0  0  0  0  0  0  0  0  0  0  0  0
    1.4815    3.8499    1.3315 C   0  0  0  0  0  0  0  0  0  0  0  0
    1.0452   -1.9349    0.2813 C   0  0  0  0  0  0  0  0  0  0  0  0
   -1.3774    1.5430    0.6045 C   0  0  0  0  0  0  0  0  0  0  0  0
   -0.7502   -3.4767    0.0497 C   0  0  0  0  0  0  0  0  0  0  0  0
   -2.5470   -0.9683    0.2371 C   0  0  0  0  0  0  0  0  0  0  0  0
   -2.7656    1.4180    0.5381 C   0  0  0  0  0  0  0  0  0  0  0  0
   -3.3485    0.1706    0.3390 C   0  0  0  0  0  0  0  0  0  0  0  0
   -1.0220   -4.2732    1.1691 C   0  0  0  0  0  0  0  0  0  0  0  0
   -0.8306   -4.0402   -1.2315 C   0  0  0  0  0  0  0  0  0  0  0  0
    0.9759    6.0235    2.2690 C   0  0  0  0  0  0  0  0  0  0  0  0
    2.1477    5.9105    0.1954 C   0  0  0  0  0  0  0  0  0  0  0  0
   -1.3456   -5.6214    1.0109 C   0  0  0  0  0  0  0  0  0  0  0  0
   -1.1545   -5.3912   -1.3888 C   0  0  0  0  0  0  0  0  0  0  0  0
   -1.4018   -6.1813   -0.2662 C   0  0  0  0  0  0  0  0  0  0  0  0
    2.2957    3.2778   -0.5896 H   0  0  0  0  0  0  0  0  0  0  0  0
    0.5727    3.0782   -0.5082 H   0  0  0  0  0  0  0  0  0  0  0  0
    0.7354    3.4508    2.0311 H   0  0  0  0  0  0  0  0  0  0  0  0
    2.4489    3.7908    1.8472 H   0  0  0  0  0  0  0  0  0  0  0  0
    1.7165   -2.7854    0.2217 H   0  0  0  0  0  0  0  0  0  0  0  0
   -0.9846    2.5322    0.7994 H   0  0  0  0  0  0  0  0  0  0  0  0
   -3.0322   -1.9330    0.1034 H   0  0  0  0  0  0  0  0  0  0  0  0
   -3.3928    2.3008    0.6426 H   0  0  0  0  0  0  0  0  0  0  0  0
   -4.4301    0.0815    0.2736 H   0  0  0  0  0  0  0  0  0  0  0  0
   -0.9605   -3.8529    2.1715 H   0  0  0  0  0  0  0  0  0  0  0  0
   -0.6202   -3.4386   -2.1103 H   0  0  0  0  0  0  0  0  0  0  0  0
    1.9224    6.1286    2.8126 H   0  0  0  0  0  0  0  0  0  0  0  0
    0.5951    7.0272    2.0461 H   0  0  0  0  0  0  0  0  0  0  0  0
    0.2459    5.5534    2.9363 H   0  0  0  0  0  0  0  0  0  0  0  0
    3.1207    5.9643    0.6974 H   0  0  0  0  0  0  0  0  0  0  0  0
    2.2820    5.4005   -0.7628 H   0  0  0  0  0  0  0  0  0  0  0  0
    1.8320    6.9300   -0.0544 H   0  0  0  0  0  0  0  0  0  0  0  0
   -1.5369   -6.2415    1.8826 H   0  0  0  0  0  0  0  0  0  0  0  0
   -1.1955   -5.8265   -2.3809 H   0  0  0  0  0  0  0  0  0  0  0  0
   -1.6318   -7.2376   -0.3874 H   0  0  0  0  0  0  0  0  0  0  0  0
  1  5  1  0  0  0  0
  1  6  1  0  0  0  0
  1  9  1  0  0  0  0
  2 11  1  0  0  0  0
  2 20  1  0  0  0  0
  2 21  1  0  0  0  0
  3  4  1  0  0  0  0
  3  6  2  0  0  0  0
  4  9  2  0  0  0  0
  5  7  2  0  0  0  0
  5 13  1  0  0  0  0
  6  8  1  0  0  0  0
  7 10  1  0  0  0  0
  7 15  1  0  0  0  0
  8 11  1  0  0  0  0
  8 25  1  0  0  0  0
  8 26  1  0  0  0  0
  9 12  1  0  0  0  0
 10 12  2  0  0  0  0
 10 14  1  0  0  0  0
 11 27  1  0  0  0  0
 11 28  1  0  0  0  0
 12 29  1  0  0  0  0
 13 16  2  0  0  0  0
 13 30  1  0  0  0  0
 14 18  2  0  0  0  0
 14 19  1  0  0  0  0
 15 17  2  0  0  0  0
 15 31  1  0  0  0  0
 16 17  1  0  0  0  0
 16 32  1  0  0  0  0
 17 33  1  0  0  0  0
 18 22  1  0  0  0  0
 18 34  1  0  0  0  0
 19 23  2  0  0  0  0
 19 35  1  0  0  0  0
 20 36  1  0  0  0  0
 20 37  1  0  0  0  0
 20 38  1  0  0  0  0
 21 39  1  0  0  0  0
 21 40  1  0  0  0  0
 21 41  1  0  0  0  0
 22 24  2  0  0  0  0
 22 42  1  0  0  0  0
 23 24  1  0  0  0  0
 23 43  1  0  0  0  0
 24 44  1  0  0  0  0
M  END
>  <Mol_ID>
4982

>  <Formula>
C20H19ClN4

>  <MolWeight>
350.84466

>  <Cat>
S0435

>  <Name>
PF-9366

>  <Synonyms>
N/A

>  <Target>
MAT2A

>  <Form>
Free Base

>  <CAS>
72882-78-1

>  <URL>
http://www.selleckchem.com/products/pf-9366.html

$$$$
