PFI-3.cdx
 OpenBabel08302519583D

 43 46  0  0  0  0  0  0  0  0999 V2000
    1.2719   -0.7062    2.3910 C   0  0  0  0  0  0  0  0  0  0  0  0
    1.2155   -0.3266    3.7296 C   0  0  0  0  0  0  0  0  0  0  0  0
    1.1753    1.0250    4.0688 C   0  0  0  0  0  0  0  0  0  0  0  0
    1.1821    1.9982    3.0651 C   0  0  0  0  0  0  0  0  0  0  0  0
    1.2136    1.6340    1.7123 C   0  0  0  0  0  0  0  0  0  0  0  0
    1.2773    0.2671    1.3863 C   0  0  0  0  0  0  0  0  0  0  0  0
    1.2390    2.6191    0.5904 C   0  0  0  0  0  0  0  0  0  0  0  0
    0.5292    3.9158    0.7732 C   0  0  0  0  0  0  0  0  0  0  0  0
    0.8531    4.9829    0.0332 C   0  0  0  0  0  0  0  0  0  0  0  0
    0.3477    6.2614    0.1122 N   0  0  0  0  0  0  0  0  0  0  0  0
    0.7491    7.3956   -0.7545 C   0  0  1  0  0  0  0  0  0  0  0  0
   -0.3294    7.5845   -1.8661 C   0  0  0  0  0  0  0  0  0  0  0  0
   -1.4527    8.1227   -1.0860 N   0  0  0  0  0  0  0  0  0  0  0  0
   -1.0310    8.1810    0.3257 C   0  0  1  0  0  0  0  0  0  0  0  0
   -0.8542    6.7207    0.8590 C   0  0  0  0  0  0  0  0  0  0  0  0
    0.4398    8.5921    0.1581 C   0  0  0  0  0  0  0  0  0  0  0  0
    1.7980    2.3314   -0.4667 O   0  0  0  0  0  0  0  0  0  0  0  0
    1.1926    3.3145    3.4388 O   0  0  0  0  0  0  0  0  0  0  0  0
   -2.6949    8.4399   -1.5321 C   0  0  0  0  0  0  0  0  0  0  0  0
   -3.5810    8.9474   -0.6460 N   0  0  0  0  0  0  0  0  0  0  0  0
   -4.8033    9.3169   -1.0931 C   0  0  0  0  0  0  0  0  0  0  0  0
   -5.2157    9.1978   -2.4062 C   0  0  0  0  0  0  0  0  0  0  0  0
   -4.3183    8.6608   -3.3129 C   0  0  0  0  0  0  0  0  0  0  0  0
   -3.0513    8.2833   -2.8711 C   0  0  0  0  0  0  0  0  0  0  0  0
    1.3180   -1.7602    2.1270 H   0  0  0  0  0  0  0  0  0  0  0  0
    1.2153   -1.0831    4.5115 H   0  0  0  0  0  0  0  0  0  0  0  0
    1.1499    1.3016    5.1186 H   0  0  0  0  0  0  0  0  0  0  0  0
    1.3341   -0.0435    0.3442 H   0  0  0  0  0  0  0  0  0  0  0  0
   -0.2195    3.9832    1.5506 H   0  0  0  0  0  0  0  0  0  0  0  0
    1.6356    4.8890   -0.7193 H   0  0  0  0  0  0  0  0  0  0  0  0
    1.7785    7.3378   -1.1165 H   0  0  0  0  0  0  0  0  0  0  0  0
   -0.5843    6.6332   -2.3451 H   0  0  0  0  0  0  0  0  0  0  0  0
    0.0036    8.3139   -2.6114 H   0  0  0  0  0  0  0  0  0  0  0  0
   -1.6176    8.8389    0.9717 H   0  0  0  0  0  0  0  0  0  0  0  0
   -0.6499    6.7173    1.9349 H   0  0  0  0  0  0  0  0  0  0  0  0
   -1.7278    6.0998    0.6344 H   0  0  0  0  0  0  0  0  0  0  0  0
    0.5675    9.5571   -0.3443 H   0  0  0  0  0  0  0  0  0  0  0  0
    0.9978    8.5808    1.1004 H   0  0  0  0  0  0  0  0  0  0  0  0
    1.2259    3.3807    4.4058 H   0  0  0  0  0  0  0  0  0  0  0  0
   -5.4628    9.7320   -0.3374 H   0  0  0  0  0  0  0  0  0  0  0  0
   -6.2054    9.5146   -2.7129 H   0  0  0  0  0  0  0  0  0  0  0  0
   -4.5896    8.5396   -4.3568 H   0  0  0  0  0  0  0  0  0  0  0  0
   -2.3493    7.8705   -3.5849 H   0  0  0  0  0  0  0  0  0  0  0  0
  1  2  2  0  0  0  0
  1 25  1  0  0  0  0
  2  3  1  0  0  0  0
  2 26  1  0  0  0  0
  3  4  2  0  0  0  0
  3 27  1  0  0  0  0
  4  5  1  0  0  0  0
  4 18  1  0  0  0  0
  5  6  2  0  0  0  0
  5  7  1  0  0  0  0
  6  1  1  0  0  0  0
  6 28  1  0  0  0  0
  7  8  1  0  0  0  0
  7 17  2  0  0  0  0
  8  9  2  0  0  0  0
  8 29  1  0  0  0  0
  9 10  1  0  0  0  0
  9 30  1  0  0  0  0
 10 11  1  0  0  0  0
 11 12  1  0  0  0  0
 11 16  1  0  0  0  0
 11 31  1  6  0  0  0
 12 13  1  0  0  0  0
 12 32  1  0  0  0  0
 12 33  1  0  0  0  0
 13 14  1  0  0  0  0
 13 19  1  0  0  0  0
 14 15  1  0  0  0  0
 14 16  1  0  0  0  0
 14 34  1  1  0  0  0
 15 10  1  0  0  0  0
 15 35  1  0  0  0  0
 15 36  1  0  0  0  0
 16 37  1  0  0  0  0
 16 38  1  0  0  0  0
 18 39  1  0  0  0  0
 19 20  2  0  0  0  0
 20 21  1  0  0  0  0
 21 22  2  0  0  0  0
 21 40  1  0  0  0  0
 22 23  1  0  0  0  0
 22 41  1  0  0  0  0
 23 24  2  0  0  0  0
 23 42  1  0  0  0  0
 24 19  1  0  0  0  0
 24 43  1  0  0  0  0
M  END
>  <Mol_ID>
2470

>  <Formula>
C19H19N3O2

>  <MolWeight>
321.37306

>  <Cat>
S7315

>  <Name>
PFI-3

>  <Synonyms>
N/A

>  <Target>
Epigenetic Reader Domain

>  <Form>
free base

>  <CAS>
1819363-80-8

>  <URL>
http://selleckchem.com/products/pfi-3.html

$$$$
