PH797804.cdx
 OpenBabel08302521433D

 49 51  0  0  0  0  0  0  0  0999 V2000
   -1.1583   -1.2197    0.0074 C   0  0  0  0  0  0  0  0  0  0  0  0
   -1.9128   -0.0279    0.0318 C   0  0  0  0  0  0  0  0  0  0  0  0
   -1.2435    1.2027   -0.0884 C   0  0  0  0  0  0  0  0  0  0  0  0
    0.1498    1.2553   -0.1778 C   0  0  0  0  0  0  0  0  0  0  0  0
    0.8998    0.0785   -0.1160 C   0  0  0  0  0  0  0  0  0  0  0  0
    0.2442   -1.1565   -0.0406 C   0  0  0  0  0  0  0  0  0  0  0  0
    2.3854    0.1670   -0.1815 C   0  0  0  0  0  0  0  0  0  0  0  0
    2.9220    1.0673   -0.8108 O   0  0  0  0  0  0  0  0  0  0  0  0
    3.0683   -0.8065    0.5204 N   0  0  0  0  0  0  0  0  0  0  0  0
    4.5070   -0.9002    0.5181 C   0  0  0  0  0  0  0  0  0  0  0  0
   -1.7861   -2.5105   -0.0362 N   0  0  0  0  0  0  0  0  0  0  0  0
   -3.4051   -0.0286    0.2179 C   0  0  0  0  0  0  0  0  0  0  0  0
   -2.4708   -2.9556   -1.1763 C   0  0  0  0  0  0  0  0  0  0  0  0
   -2.9935   -4.1921   -1.2057 C   0  0  0  0  0  0  0  0  0  0  0  0
   -2.9834   -5.0504   -0.0474 C   0  0  0  0  0  0  0  0  0  0  0  0
   -2.2676   -4.7031    1.0370 C   0  0  0  0  0  0  0  0  0  0  0  0
   -1.5368   -3.3816    1.0531 C   0  0  0  0  0  0  0  0  0  0  0  0
   -2.5626   -2.1136   -2.4238 C   0  0  0  0  0  0  0  0  0  0  0  0
   -0.7953   -3.0970    1.9970 O   0  0  0  0  0  0  0  0  0  0  0  0
   -2.1640   -5.7760    2.5700 Br  0  0  0  0  0  0  0  0  0  0  0  0
   -3.6932   -6.2465   -0.1146 O   0  0  0  0  0  0  0  0  0  0  0  0
   -5.0016   -6.1386   -0.6984 C   0  0  0  0  0  0  0  0  0  0  0  0
   -5.9148   -7.2967   -0.3744 C   0  0  0  0  0  0  0  0  0  0  0  0
   -5.5569   -8.3714    0.4490 C   0  0  0  0  0  0  0  0  0  0  0  0
   -6.4993   -9.3580    0.7593 C   0  0  0  0  0  0  0  0  0  0  0  0
   -7.7902   -9.2761    0.2431 C   0  0  0  0  0  0  0  0  0  0  0  0
   -8.1552   -8.2437   -0.6051 C   0  0  0  0  0  0  0  0  0  0  0  0
   -7.2132   -7.2686   -0.9080 C   0  0  0  0  0  0  0  0  0  0  0  0
   -7.5664   -6.2646   -1.7248 F   0  0  0  0  0  0  0  0  0  0  0  0
   -8.6957  -10.2057    0.5753 F   0  0  0  0  0  0  0  0  0  0  0  0
   -1.8041    2.1357   -0.1019 H   0  0  0  0  0  0  0  0  0  0  0  0
    0.6500    2.2172   -0.2747 H   0  0  0  0  0  0  0  0  0  0  0  0
    0.8153   -2.0794   -0.0669 H   0  0  0  0  0  0  0  0  0  0  0  0
    2.5565   -1.4563    1.0969 H   0  0  0  0  0  0  0  0  0  0  0  0
    4.8320   -1.1718    1.5260 H   0  0  0  0  0  0  0  0  0  0  0  0
    4.7939   -1.6953   -0.1765 H   0  0  0  0  0  0  0  0  0  0  0  0
    4.9752    0.0397    0.2161 H   0  0  0  0  0  0  0  0  0  0  0  0
   -3.9170   -0.3733   -0.6824 H   0  0  0  0  0  0  0  0  0  0  0  0
   -3.6826   -0.6673    1.0636 H   0  0  0  0  0  0  0  0  0  0  0  0
   -3.7776    0.9768    0.4421 H   0  0  0  0  0  0  0  0  0  0  0  0
   -3.4355   -4.5590   -2.1253 H   0  0  0  0  0  0  0  0  0  0  0  0
   -2.3731   -2.7217   -3.3153 H   0  0  0  0  0  0  0  0  0  0  0  0
   -3.5713   -1.6962   -2.5150 H   0  0  0  0  0  0  0  0  0  0  0  0
   -1.8463   -1.2899   -2.4619 H   0  0  0  0  0  0  0  0  0  0  0  0
   -4.8972   -6.1000   -1.7887 H   0  0  0  0  0  0  0  0  0  0  0  0
   -5.4892   -5.2246   -0.3342 H   0  0  0  0  0  0  0  0  0  0  0  0
   -4.5540   -8.4442    0.8645 H   0  0  0  0  0  0  0  0  0  0  0  0
   -6.2395  -10.1859    1.4129 H   0  0  0  0  0  0  0  0  0  0  0  0
   -9.1573   -8.1901   -1.0132 H   0  0  0  0  0  0  0  0  0  0  0  0
  1  2  2  0  0  0  0
  1 11  1  0  0  0  0
  2  3  1  0  0  0  0
  2 12  1  0  0  0  0
  3  4  2  0  0  0  0
  3 31  1  0  0  0  0
  4  5  1  0  0  0  0
  4 32  1  0  0  0  0
  5  6  2  0  0  0  0
  5  7  1  0  0  0  0
  6  1  1  0  0  0  0
  6 33  1  0  0  0  0
  7  8  2  0  0  0  0
  7  9  1  0  0  0  0
  9 10  1  0  0  0  0
  9 34  1  0  0  0  0
 10 35  1  0  0  0  0
 10 36  1  0  0  0  0
 10 37  1  0  0  0  0
 11 13  1  0  0  0  0
 12 38  1  0  0  0  0
 12 39  1  0  0  0  0
 12 40  1  0  0  0  0
 13 14  2  0  0  0  0
 13 18  1  0  0  0  0
 14 15  1  0  0  0  0
 14 41  1  0  0  0  0
 15 16  2  0  0  0  0
 15 21  1  0  0  0  0
 16 17  1  0  0  0  0
 16 20  1  0  0  0  0
 17 11  1  0  0  0  0
 17 19  2  0  0  0  0
 18 42  1  0  0  0  0
 18 43  1  0  0  0  0
 18 44  1  0  0  0  0
 21 22  1  0  0  0  0
 22 23  1  0  0  0  0
 22 45  1  0  0  0  0
 22 46  1  0  0  0  0
 23 24  2  0  0  0  0
 24 25  1  0  0  0  0
 24 47  1  0  0  0  0
 25 26  2  0  0  0  0
 25 48  1  0  0  0  0
 26 27  1  0  0  0  0
 26 30  1  0  0  0  0
 27 28  2  0  0  0  0
 27 49  1  0  0  0  0
 28 23  1  0  0  0  0
 28 29  1  0  0  0  0
M  END
>  <Mol_ID>
889

>  <Formula>
C22H19BrF2N2O3

>  <MolWeight>
477.2986664

>  <Cat>
S2726

>  <Name>
PH-797804

>  <Synonyms>
N/A

>  <Target>
p38 MAPK

>  <Form>
free base

>  <CAS>
586379-66-0

>  <URL>
http://selleckchem.com/products/ph-797804.html

$$$$
