PHA-793887.cdx
 OpenBabel08302520013D

 57 59  0  0  0  0  0  0  0  0999 V2000
   -1.2460    0.9687    0.4903 N   0  0  0  0  0  0  0  0  0  0  0  0
   -2.0814   -0.0733    0.5368 N   0  0  0  0  0  0  0  0  0  0  0  0
   -1.3214   -1.1680    0.3802 C   0  0  0  0  0  0  0  0  0  0  0  0
    0.0377   -0.8024    0.3835 C   0  0  0  0  0  0  0  0  0  0  0  0
    0.0297    0.5567    0.3714 C   0  0  0  0  0  0  0  0  0  0  0  0
    1.4086   -1.2925    0.2520 C   0  0  0  0  0  0  0  0  0  0  0  0
    2.1934   -0.0029    0.1344 N   0  0  0  0  0  0  0  0  0  0  0  0
    1.3170    1.2500    0.1703 C   0  0  0  0  0  0  0  0  0  0  0  0
    1.5248    2.2426    1.3178 C   0  0  0  0  0  0  0  0  0  0  0  0
    1.2639    2.0173   -1.1584 C   0  0  0  0  0  0  0  0  0  0  0  0
    3.5412   -0.1775   -0.1369 C   0  0  0  0  0  0  0  0  0  0  0  0
    4.5177    0.9989   -0.0426 C   0  0  0  0  0  0  0  0  0  0  0  0
    5.9271    0.6424   -0.5557 C   0  0  0  0  0  0  0  0  0  0  0  0
    6.7082   -0.3192    0.3658 C   0  0  0  0  0  0  0  0  0  0  0  0
    6.6071   -0.0575    1.8076 N   0  0  0  0  0  0  0  0  0  0  0  0
    5.2942    0.3785    2.2649 C   0  0  0  0  0  0  0  0  0  0  0  0
    4.6946    1.4656    1.3968 C   0  0  0  0  0  0  0  0  0  0  0  0
    3.9679   -1.3093   -0.3988 O   0  0  0  0  0  0  0  0  0  0  0  0
    6.9894   -1.2320    2.6033 C   0  0  0  0  0  0  0  0  0  0  0  0
   -1.8598   -2.4302    0.2137 N   0  0  0  0  0  0  0  0  0  0  0  0
   -3.2136   -2.6353   -0.0335 C   0  0  0  0  0  0  0  0  0  0  0  0
   -3.6183   -4.0864   -0.2029 C   0  0  0  0  0  0  0  0  0  0  0  0
   -4.0832   -1.7755   -0.1673 O   0  0  0  0  0  0  0  0  0  0  0  0
   -3.4840   -4.9341    1.0656 C   0  0  0  0  0  0  0  0  0  0  0  0
   -4.3289   -4.3826    2.2170 C   0  0  0  0  0  0  0  0  0  0  0  0
   -3.9129   -6.3732    0.7658 C   0  0  0  0  0  0  0  0  0  0  0  0
   -1.6266    1.8996    0.5198 H   0  0  0  0  0  0  0  0  0  0  0  0
    1.5714   -1.9102   -0.6362 H   0  0  0  0  0  0  0  0  0  0  0  0
    1.7615   -1.8130    1.1492 H   0  0  0  0  0  0  0  0  0  0  0  0
    2.3684    2.9130    1.1259 H   0  0  0  0  0  0  0  0  0  0  0  0
    0.6569    2.9074    1.4246 H   0  0  0  0  0  0  0  0  0  0  0  0
    1.6556    1.7425    2.2838 H   0  0  0  0  0  0  0  0  0  0  0  0
    0.9427    1.3822   -1.9909 H   0  0  0  0  0  0  0  0  0  0  0  0
    0.5395    2.8421   -1.0877 H   0  0  0  0  0  0  0  0  0  0  0  0
    2.2253    2.4646   -1.4217 H   0  0  0  0  0  0  0  0  0  0  0  0
    4.1291    1.8074   -0.6673 H   0  0  0  0  0  0  0  0  0  0  0  0
    6.5023    1.5738   -0.6562 H   0  0  0  0  0  0  0  0  0  0  0  0
    5.8745    0.2085   -1.5626 H   0  0  0  0  0  0  0  0  0  0  0  0
    7.7705   -0.2202    0.0994 H   0  0  0  0  0  0  0  0  0  0  0  0
    6.4354   -1.3521    0.1236 H   0  0  0  0  0  0  0  0  0  0  0  0
    4.5836   -0.4578    2.3173 H   0  0  0  0  0  0  0  0  0  0  0  0
    5.3844    0.7737    3.2835 H   0  0  0  0  0  0  0  0  0  0  0  0
    5.3088    2.3740    1.4251 H   0  0  0  0  0  0  0  0  0  0  0  0
    3.7550    1.7147    1.8661 H   0  0  0  0  0  0  0  0  0  0  0  0
    7.3148   -0.9043    3.5968 H   0  0  0  0  0  0  0  0  0  0  0  0
    6.1522   -1.9304    2.7438 H   0  0  0  0  0  0  0  0  0  0  0  0
    7.8129   -1.7955    2.1555 H   0  0  0  0  0  0  0  0  0  0  0  0
   -1.2209   -3.2074    0.1475 H   0  0  0  0  0  0  0  0  0  0  0  0
   -4.6658   -4.0905   -0.5368 H   0  0  0  0  0  0  0  0  0  0  0  0
   -3.0307   -4.5105   -1.0249 H   0  0  0  0  0  0  0  0  0  0  0  0
   -2.4353   -4.9455    1.3842 H   0  0  0  0  0  0  0  0  0  0  0  0
   -5.3907   -4.3415    1.9495 H   0  0  0  0  0  0  0  0  0  0  0  0
   -4.2306   -5.0179    3.1041 H   0  0  0  0  0  0  0  0  0  0  0  0
   -4.0103   -3.3741    2.4986 H   0  0  0  0  0  0  0  0  0  0  0  0
   -3.3255   -6.7946   -0.0565 H   0  0  0  0  0  0  0  0  0  0  0  0
   -3.7693   -7.0115    1.6436 H   0  0  0  0  0  0  0  0  0  0  0  0
   -4.9712   -6.4223    0.4840 H   0  0  0  0  0  0  0  0  0  0  0  0
  1  2  1  0  0  0  0
  1 27  1  0  0  0  0
  2  3  2  0  0  0  0
  3  4  1  0  0  0  0
  3 20  1  0  0  0  0
  4  5  2  0  0  0  0
  4  6  1  0  0  0  0
  5  1  1  0  0  0  0
  6  7  1  0  0  0  0
  6 28  1  0  0  0  0
  6 29  1  0  0  0  0
  7  8  1  0  0  0  0
  7 11  1  0  0  0  0
  8  5  1  0  0  0  0
  8  9  1  0  0  0  0
  8 10  1  0  0  0  0
  9 30  1  0  0  0  0
  9 31  1  0  0  0  0
  9 32  1  0  0  0  0
 10 33  1  0  0  0  0
 10 34  1  0  0  0  0
 10 35  1  0  0  0  0
 11 12  1  0  0  0  0
 11 18  2  0  0  0  0
 12 13  1  0  0  0  0
 12 36  1  0  0  0  0
 13 14  1  0  0  0  0
 13 37  1  0  0  0  0
 13 38  1  0  0  0  0
 14 15  1  0  0  0  0
 14 39  1  0  0  0  0
 14 40  1  0  0  0  0
 15 16  1  0  0  0  0
 15 19  1  0  0  0  0
 16 17  1  0  0  0  0
 16 41  1  0  0  0  0
 16 42  1  0  0  0  0
 17 12  1  0  0  0  0
 17 43  1  0  0  0  0
 17 44  1  0  0  0  0
 19 45  1  0  0  0  0
 19 46  1  0  0  0  0
 19 47  1  0  0  0  0
 20 21  1  0  0  0  0
 20 48  1  0  0  0  0
 21 22  1  0  0  0  0
 21 23  2  0  0  0  0
 22 24  1  0  0  0  0
 22 49  1  0  0  0  0
 22 50  1  0  0  0  0
 24 25  1  0  0  0  0
 24 26  1  0  0  0  0
 24 51  1  0  0  0  0
 25 52  1  0  0  0  0
 25 53  1  0  0  0  0
 25 54  1  0  0  0  0
 26 55  1  0  0  0  0
 26 56  1  0  0  0  0
 26 57  1  0  0  0  0
M  END
>  <Mol_ID>
287

>  <Formula>
C19H31N5O2

>  <MolWeight>
361.48174

>  <Cat>
S1487

>  <Name>
PHA-793887

>  <Synonyms>
N/A

>  <Target>
Apoptosis related,CDK

>  <Form>
free base

>  <CAS>
718630-59-2

>  <URL>
http://selleckchem.com/products/PHA-793887.html

$$$$
