Phenoxybenzamine hydrochloride.cdx
 OpenBabel08302522033D

 43 44  0  0  0  0  0  0  0  0999 V2000
   -7.2407    2.1046   -2.6204 C   0  0  0  0  0  0  0  0  0  0  0  0
   -5.8803    2.0968   -2.9126 C   0  0  0  0  0  0  0  0  0  0  0  0
   -4.9756    1.5145   -2.0209 C   0  0  0  0  0  0  0  0  0  0  0  0
   -5.4262    0.8916   -0.8596 C   0  0  0  0  0  0  0  0  0  0  0  0
   -6.7818    0.9740   -0.5351 C   0  0  0  0  0  0  0  0  0  0  0  0
   -7.6885    1.5731   -1.4134 C   0  0  0  0  0  0  0  0  0  0  0  0
   -4.6615    0.1712    0.0158 O   0  0  0  0  0  0  0  0  0  0  0  0
   -3.3413   -0.2189   -0.3939 C   0  0  0  0  0  0  0  0  0  0  0  0
   -3.3076   -1.4321   -1.3882 C   0  0  3  0  0  0  0  0  0  0  0  0
   -1.9447   -1.8100   -1.8277 N   0  0  0  0  0  0  0  0  0  0  0  0
   -1.7450   -2.9962   -2.6599 C   0  0  0  0  0  0  0  0  0  0  0  0
   -4.0323   -2.6151   -0.7163 C   0  0  0  0  0  0  0  0  0  0  0  0
   -0.9488   -0.7551   -2.0350 C   0  0  0  0  0  0  0  0  0  0  0  0
   -2.3626   -2.9977   -4.0513 C   0  0  0  0  0  0  0  0  0  0  0  0
   -1.1606    0.3232   -3.0823 C   0  0  0  0  0  0  0  0  0  0  0  0
   -2.2402    0.4024   -3.9668 C   0  0  0  0  0  0  0  0  0  0  0  0
   -2.3725    1.4771   -4.8574 C   0  0  0  0  0  0  0  0  0  0  0  0
   -1.4155    2.4867   -4.8838 C   0  0  0  0  0  0  0  0  0  0  0  0
   -0.3192    2.4148   -4.0341 C   0  0  0  0  0  0  0  0  0  0  0  0
   -0.1880    1.3477   -3.1435 C   0  0  0  0  0  0  0  0  0  0  0  0
   -7.9469    2.5344   -3.3254 H   0  0  0  0  0  0  0  0  0  0  0  0
   -5.5171    2.5386   -3.8369 H   0  0  0  0  0  0  0  0  0  0  0  0
   -3.9235    1.5659   -2.2662 H   0  0  0  0  0  0  0  0  0  0  0  0
   -7.1381    0.5522    0.4011 H   0  0  0  0  0  0  0  0  0  0  0  0
   -8.7446    1.6099   -1.1613 H   0  0  0  0  0  0  0  0  0  0  0  0
   -2.7981    0.6572   -0.7580 H   0  0  0  0  0  0  0  0  0  0  0  0
   -2.8210   -0.5156    0.5261 H   0  0  0  0  0  0  0  0  0  0  0  0
   -3.9141   -1.1752   -2.2609 H   0  0  0  0  0  0  0  0  0  0  0  0
   -0.6691   -3.1817   -2.7774 H   0  0  0  0  0  0  0  0  0  0  0  0
   -2.0951   -3.8851   -2.1237 H   0  0  0  0  0  0  0  0  0  0  0  0
   -5.0754   -2.3586   -0.5002 H   0  0  0  0  0  0  0  0  0  0  0  0
   -4.0665   -3.5018   -1.3559 H   0  0  0  0  0  0  0  0  0  0  0  0
   -3.5510   -2.8915    0.2283 H   0  0  0  0  0  0  0  0  0  0  0  0
   -0.7915   -0.2547   -1.0706 H   0  0  0  0  0  0  0  0  0  0  0  0
    0.0254   -1.2189   -2.2450 H   0  0  0  0  0  0  0  0  0  0  0  0
   -1.9561   -2.1999   -4.6783 H   0  0  0  0  0  0  0  0  0  0  0  0
   -2.1201   -3.9380   -4.5597 H   0  0  0  0  0  0  0  0  0  0  0  0
   -3.4513   -2.9103   -4.0146 H   0  0  0  0  0  0  0  0  0  0  0  0
   -3.0206   -0.3447   -3.9769 H   0  0  0  0  0  0  0  0  0  0  0  0
   -3.2346    1.5281   -5.5152 H   0  0  0  0  0  0  0  0  0  0  0  0
   -1.5242    3.3232   -5.5630 H   0  0  0  0  0  0  0  0  0  0  0  0
    0.4351    3.1938   -4.0503 H   0  0  0  0  0  0  0  0  0  0  0  0
    0.6676    1.3161   -2.4788 H   0  0  0  0  0  0  0  0  0  0  0  0
  1  2  2  0  0  0  0
  1 21  1  0  0  0  0
  2  3  1  0  0  0  0
  2 22  1  0  0  0  0
  3  4  2  0  0  0  0
  3 23  1  0  0  0  0
  4  5  1  0  0  0  0
  4  7  1  0  0  0  0
  5  6  2  0  0  0  0
  5 24  1  0  0  0  0
  6  1  1  0  0  0  0
  6 25  1  0  0  0  0
  7  8  1  0  0  0  0
  8  9  1  0  0  0  0
  8 26  1  0  0  0  0
  8 27  1  0  0  0  0
  9 10  1  0  0  0  0
  9 12  1  0  0  0  0
  9 28  1  0  0  0  0
 10 11  1  0  0  0  0
 10 13  1  0  0  0  0
 11 14  1  0  0  0  0
 11 29  1  0  0  0  0
 11 30  1  0  0  0  0
 12 31  1  0  0  0  0
 12 32  1  0  0  0  0
 12 33  1  0  0  0  0
 13 15  1  0  0  0  0
 13 34  1  0  0  0  0
 13 35  1  0  0  0  0
 14 36  1  0  0  0  0
 14 37  1  0  0  0  0
 14 38  1  0  0  0  0
 15 16  2  0  0  0  0
 16 17  1  0  0  0  0
 16 39  1  0  0  0  0
 17 18  2  0  0  0  0
 17 40  1  0  0  0  0
 18 19  1  0  0  0  0
 18 41  1  0  0  0  0
 19 20  2  0  0  0  0
 19 42  1  0  0  0  0
 20 15  1  0  0  0  0
 20 43  1  0  0  0  0
M  END
>  <Mol_ID>
1155

>  <Formula>
C18H23Cl2NO

>  <MolWeight>
340.28732

>  <Cat>
S2499

>  <Name>
Phenoxybenzamine HCl

>  <Synonyms>
NSC 37448, NCI-c01661

>  <Target>
Adrenergic Receptor

>  <Form>
HCl

>  <CAS>
63-92-3

>  <URL>
http://selleckchem.com/products/Phenoxybenzamine-hydrochloride.html

$$$$
