Phenylacetylglutamine
 OpenBabel08302520393D

 35 35  0  0  0  0  0  0  0  0999 V2000
    0.8507   -0.0005    0.1026 C   0  0  1  0  0  0  0  0  0  0  0  0
    0.0981    1.0622   -0.5679 N   0  0  0  0  0  0  0  0  0  0  0  0
    0.1915   -0.3422    1.4517 C   0  0  0  0  0  0  0  0  0  0  0  0
    0.8816   -1.2138   -0.8374 C   0  0  0  0  0  0  0  0  0  0  0  0
    0.0905    2.3542   -0.0957 C   0  0  0  0  0  0  0  0  0  0  0  0
    0.8274   -1.4664    2.2681 C   0  0  0  0  0  0  0  0  0  0  0  0
    1.9797   -1.9951   -0.6930 O   0  0  0  0  0  0  0  0  0  0  0  0
   -0.0159   -1.4823   -1.6341 O   0  0  0  0  0  0  0  0  0  0  0  0
   -0.8621    3.2910   -0.8119 C   0  0  0  0  0  0  0  0  0  0  0  0
    0.7860    2.7200    0.8497 O   0  0  0  0  0  0  0  0  0  0  0  0
    2.2938   -1.2318    2.5354 C   0  0  0  0  0  0  0  0  0  0  0  0
   -2.2630    3.2695   -0.2463 C   0  0  0  0  0  0  0  0  0  0  0  0
    2.6503   -1.1357    3.8435 N   0  0  0  0  0  0  0  0  0  0  0  0
    3.1109   -1.1551    1.6206 O   0  0  0  0  0  0  0  0  0  0  0  0
   -2.4997    3.5614    1.1056 C   0  0  0  0  0  0  0  0  0  0  0  0
   -3.3592    3.0105   -1.0807 C   0  0  0  0  0  0  0  0  0  0  0  0
   -3.8025    3.5933    1.6088 C   0  0  0  0  0  0  0  0  0  0  0  0
   -4.6610    3.0436   -0.5761 C   0  0  0  0  0  0  0  0  0  0  0  0
   -4.8828    3.3379    0.7671 C   0  0  0  0  0  0  0  0  0  0  0  0
    1.8680    0.3874    0.2246 H   0  0  0  0  0  0  0  0  0  0  0  0
   -0.5358    0.7837   -1.3127 H   0  0  0  0  0  0  0  0  0  0  0  0
    0.1692    0.5582    2.0789 H   0  0  0  0  0  0  0  0  0  0  0  0
   -0.8586   -0.6098    1.2750 H   0  0  0  0  0  0  0  0  0  0  0  0
    0.2852   -1.5624    3.2158 H   0  0  0  0  0  0  0  0  0  0  0  0
    0.7344   -2.4293    1.7556 H   0  0  0  0  0  0  0  0  0  0  0  0
    2.6224   -1.6664   -0.0156 H   0  0  0  0  0  0  0  0  0  0  0  0
   -0.4614    4.3098   -0.7423 H   0  0  0  0  0  0  0  0  0  0  0  0
   -0.8676    3.0372   -1.8787 H   0  0  0  0  0  0  0  0  0  0  0  0
    3.6286   -1.0059    4.0704 H   0  0  0  0  0  0  0  0  0  0  0  0
    2.0212   -1.3659    4.6019 H   0  0  0  0  0  0  0  0  0  0  0  0
   -1.6695    3.7765    1.7768 H   0  0  0  0  0  0  0  0  0  0  0  0
   -3.2115    2.7917   -2.1357 H   0  0  0  0  0  0  0  0  0  0  0  0
   -3.9745    3.8268    2.6564 H   0  0  0  0  0  0  0  0  0  0  0  0
   -5.5030    2.8491   -1.2353 H   0  0  0  0  0  0  0  0  0  0  0  0
   -5.8974    3.3753    1.1558 H   0  0  0  0  0  0  0  0  0  0  0  0
  1  4  1  0  0  0  0
  1 20  1  1  0  0  0
  1  3  1  0  0  0  0
  1  2  1  0  0  0  0
  2  5  1  0  0  0  0
  2 21  1  0  0  0  0
  3  6  1  0  0  0  0
  3 22  1  0  0  0  0
  3 23  1  0  0  0  0
  4  7  1  0  0  0  0
  4  8  2  0  0  0  0
  5  9  1  0  0  0  0
  5 10  2  0  0  0  0
  6 11  1  0  0  0  0
  6 24  1  0  0  0  0
  6 25  1  0  0  0  0
  7 26  1  0  0  0  0
  9 12  1  0  0  0  0
  9 27  1  0  0  0  0
  9 28  1  0  0  0  0
 11 13  1  0  0  0  0
 11 14  2  0  0  0  0
 12 15  2  0  0  0  0
 12 16  1  0  0  0  0
 13 29  1  0  0  0  0
 13 30  1  0  0  0  0
 15 17  1  0  0  0  0
 15 31  1  0  0  0  0
 16 18  2  0  0  0  0
 16 32  1  0  0  0  0
 17 19  2  0  0  0  0
 17 33  1  0  0  0  0
 18 19  1  0  0  0  0
 18 34  1  0  0  0  0
 19 35  1  0  0  0  0
M  END
>  <Mol_ID>
3551

>  <Formula>
C13H16N2O4

>  <MolWeight>
264.27714

>  <Cat>
S6076

>  <Name>
Phenylacetylglutamine

>  <Synonyms>
N/A

>  <Target>
Others

>  <Form>
free base

>  <CAS>
28047-15-6

>  <URL>
http://www.selleck.cn/products/phenylacetylglutamine.html

$$$$
