Phenytoin sodium.cdx
 OpenBabel08302521393D

 30 32  0  0  0  0  0  0  0  0999 V2000
   -0.4803    1.1080    0.1410 N   0  0  0  0  0  0  0  0  0  0  0  0
   -1.3237   -0.0319   -0.1808 C   0  0  0  0  0  0  0  0  0  0  0  0
   -0.2781   -1.1764    0.1105 C   0  0  0  0  0  0  0  0  0  0  0  0
    0.9726   -0.6125    0.3370 N   0  0  0  0  0  0  0  0  0  0  0  0
    0.7943    0.6745    0.2976 C   0  0  0  0  0  0  0  0  0  0  0  0
    1.5263    1.6608    0.3166 O   0  5  0  0  0  0  0  0  0  0  0  0
   -0.5089   -2.3845    0.0805 O   0  0  0  0  0  0  0  0  0  0  0  0
   -2.5511    0.0065    0.7546 C   0  0  0  0  0  0  0  0  0  0  0  0
   -1.7303   -0.0716   -1.6755 C   0  0  0  0  0  0  0  0  0  0  0  0
   -0.8796    0.4142   -2.6850 C   0  0  0  0  0  0  0  0  0  0  0  0
   -1.2440    0.3403   -4.0334 C   0  0  0  0  0  0  0  0  0  0  0  0
   -2.4625   -0.2239   -4.4038 C   0  0  0  0  0  0  0  0  0  0  0  0
   -3.3149   -0.7250   -3.4268 C   0  0  0  0  0  0  0  0  0  0  0  0
   -2.9469   -0.6614   -2.0816 C   0  0  0  0  0  0  0  0  0  0  0  0
   -3.3850    1.1470    0.7428 C   0  0  0  0  0  0  0  0  0  0  0  0
   -4.6148    1.1519    1.4023 C   0  0  0  0  0  0  0  0  0  0  0  0
   -5.0289    0.0244    2.1043 C   0  0  0  0  0  0  0  0  0  0  0  0
   -4.1989   -1.0919    2.1754 C   0  0  0  0  0  0  0  0  0  0  0  0
   -2.9682   -1.1003    1.5124 C   0  0  0  0  0  0  0  0  0  0  0  0
   -0.5444    1.9840   -0.3484 H   0  0  0  0  0  0  0  0  0  0  0  0
    0.0916    0.8399   -2.4280 H   0  0  0  0  0  0  0  0  0  0  0  0
   -0.5625    0.7157   -4.7914 H   0  0  0  0  0  0  0  0  0  0  0  0
   -2.7401   -0.2842   -5.4512 H   0  0  0  0  0  0  0  0  0  0  0  0
   -4.2632   -1.1770   -3.7038 H   0  0  0  0  0  0  0  0  0  0  0  0
   -3.6305   -1.0851   -1.3485 H   0  0  0  0  0  0  0  0  0  0  0  0
   -3.0845    2.0267    0.1754 H   0  0  0  0  0  0  0  0  0  0  0  0
   -5.2520    2.0296    1.3476 H   0  0  0  0  0  0  0  0  0  0  0  0
   -5.9968    0.0147    2.5961 H   0  0  0  0  0  0  0  0  0  0  0  0
   -4.5132   -1.9712    2.7310 H   0  0  0  0  0  0  0  0  0  0  0  0
   -2.3616   -2.0010    1.5718 H   0  0  0  0  0  0  0  0  0  0  0  0
  1  2  1  0  0  0  0
  1 20  1  0  0  0  0
  2  3  1  0  0  0  0
  2  8  1  0  0  0  0
  2  9  1  0  0  0  0
  3  4  1  0  0  0  0
  3  7  2  0  0  0  0
  4  5  2  0  0  0  0
  5  1  1  0  0  0  0
  5  6  1  0  0  0  0
  8 15  2  0  0  0  0
  9 10  2  0  0  0  0
 10 11  1  0  0  0  0
 10 21  1  0  0  0  0
 11 12  2  0  0  0  0
 11 22  1  0  0  0  0
 12 13  1  0  0  0  0
 12 23  1  0  0  0  0
 13 14  2  0  0  0  0
 13 24  1  0  0  0  0
 14  9  1  0  0  0  0
 14 25  1  0  0  0  0
 15 16  1  0  0  0  0
 15 26  1  0  0  0  0
 16 17  2  0  0  0  0
 16 27  1  0  0  0  0
 17 18  1  0  0  0  0
 17 28  1  0  0  0  0
 18 19  2  0  0  0  0
 18 29  1  0  0  0  0
 19  8  1  0  0  0  0
 19 30  1  0  0  0  0
M  CHG  1   6  -1
M  END
>  <Mol_ID>
783

>  <Formula>
C15H11N2NaO2

>  <MolWeight>
274.24981

>  <Cat>
S2524

>  <Name>
Phenytoin Sodium

>  <Synonyms>
Aleviatin, Diphenylhydantoin sodium, Eptoin, Phenytoin soluble, Prompt,Phenytek,Dilantin sodium, Diphantoine

>  <Target>
Sodium Channel

>  <Form>
Sodium Salt

>  <CAS>
630-93-3

>  <URL>
http://selleckchem.com/products/Phenytoin-sodium-Dilantin.html

$$$$
