Phenoxyacetic acid
 OpenBabel08302521363D

 19 19  0  0  0  0  0  0  0  0999 V2000
    1.1689    0.0446   -0.0398 O   0  0  0  0  0  0  0  0  0  0  0  0
    0.5253    1.0351   -0.8422 C   0  0  0  0  0  0  0  0  0  0  0  0
    0.0987    2.2584   -0.0431 C   0  0  0  0  0  0  0  0  0  0  0  0
    0.3393    2.1473    1.2872 O   0  0  0  0  0  0  0  0  0  0  0  0
   -0.4142    3.2525   -0.5348 O   0  0  0  0  0  0  0  0  0  0  0  0
    2.5375    0.0706   -0.0235 C   0  0  0  0  0  0  0  0  0  0  0  0
    3.3112    1.2324   -0.0638 C   0  0  0  0  0  0  0  0  0  0  0  0
    3.1609   -1.1685    0.1350 C   0  0  0  0  0  0  0  0  0  0  0  0
    4.7007    1.1486    0.0466 C   0  0  0  0  0  0  0  0  0  0  0  0
    4.5498   -1.2522    0.2352 C   0  0  0  0  0  0  0  0  0  0  0  0
    5.3198   -0.0916    0.1950 C   0  0  0  0  0  0  0  0  0  0  0  0
    1.1397    1.3386   -1.6962 H   0  0  0  0  0  0  0  0  0  0  0  0
   -0.3910    0.5758   -1.2270 H   0  0  0  0  0  0  0  0  0  0  0  0
    0.7544    1.2803    1.4913 H   0  0  0  0  0  0  0  0  0  0  0  0
    2.8666    2.2191   -0.1511 H   0  0  0  0  0  0  0  0  0  0  0  0
    2.5636   -2.0769    0.1774 H   0  0  0  0  0  0  0  0  0  0  0  0
    5.3013    2.0549    0.0301 H   0  0  0  0  0  0  0  0  0  0  0  0
    5.0297   -2.2205    0.3521 H   0  0  0  0  0  0  0  0  0  0  0  0
    6.4013   -0.1524    0.2871 H   0  0  0  0  0  0  0  0  0  0  0  0
  1  2  1  0  0  0  0
  1  6  1  0  0  0  0
  2  3  1  0  0  0  0
  2 12  1  0  0  0  0
  2 13  1  0  0  0  0
  3  4  1  0  0  0  0
  3  5  2  0  0  0  0
  4 14  1  0  0  0  0
  6  7  2  0  0  0  0
  6  8  1  0  0  0  0
  7  9  1  0  0  0  0
  7 15  1  0  0  0  0
  8 10  2  0  0  0  0
  8 16  1  0  0  0  0
  9 11  2  0  0  0  0
  9 17  1  0  0  0  0
 10 11  1  0  0  0  0
 10 18  1  0  0  0  0
 11 19  1  0  0  0  0
M  END
>  <Mol_ID>
7249

>  <Formula>
C8H8O3

>  <MolWeight>
152.14732

>  <Cat>
E4261

>  <Name>
Phenoxyacetic acid

>  <Target>
Immunology & Inflammation related

>  <Form>
Free base

>  <CAS>
122-59-8

>  <URL>
https://www.selleckchem.com/products/phenoxyacetic-acid.html

$$$$
