Phenoxodiol (Haginin E)
 OpenBabel08302521263D

 30 32  0  0  0  0  0  0  0  0999 V2000
    2.4134    0.7219    0.0075 C   0  0  0  0  0  0  0  0  0  0  0  0
    2.3883   -0.7813    0.0344 C   0  0  0  0  0  0  0  0  0  0  0  0
    1.2518   -1.4876    0.0438 C   0  0  0  0  0  0  0  0  0  0  0  0
   -0.0054   -0.7533    0.0255 C   0  0  0  0  0  0  0  0  0  0  0  0
    0.0057    0.6447    0.0220 C   0  0  0  0  0  0  0  0  0  0  0  0
    1.1453    1.3988    0.0358 O   0  0  0  0  0  0  0  0  0  0  0  0
   -1.1966    1.3550    0.0094 C   0  0  0  0  0  0  0  0  0  0  0  0
   -2.4057    0.6686   -0.0016 C   0  0  0  0  0  0  0  0  0  0  0  0
   -2.4348   -0.7219   -0.0002 C   0  0  0  0  0  0  0  0  0  0  0  0
   -1.2313   -1.4329    0.0138 C   0  0  0  0  0  0  0  0  0  0  0  0
   -3.5549    1.4024   -0.0131 O   0  0  0  0  0  0  0  0  0  0  0  0
    3.6818   -1.4786    0.0389 C   0  0  0  0  0  0  0  0  0  0  0  0
    4.3091   -1.8100   -1.1689 C   0  0  0  0  0  0  0  0  0  0  0  0
    5.5069   -2.5287   -1.1654 C   0  0  0  0  0  0  0  0  0  0  0  0
    6.0754   -2.9154    0.0424 C   0  0  0  0  0  0  0  0  0  0  0  0
    5.4794   -2.5740    1.2523 C   0  0  0  0  0  0  0  0  0  0  0  0
    4.2793   -1.8563    1.2491 C   0  0  0  0  0  0  0  0  0  0  0  0
    7.2250   -3.6470   -0.0025 O   0  0  0  0  0  0  0  0  0  0  0  0
    2.9314    1.0666   -0.8955 H   0  0  0  0  0  0  0  0  0  0  0  0
    2.9801    1.0947    0.8703 H   0  0  0  0  0  0  0  0  0  0  0  0
    1.2352   -2.5723    0.0580 H   0  0  0  0  0  0  0  0  0  0  0  0
   -1.1883    2.4411    0.0080 H   0  0  0  0  0  0  0  0  0  0  0  0
   -3.3736   -1.2661   -0.0096 H   0  0  0  0  0  0  0  0  0  0  0  0
   -1.2594   -2.5203    0.0150 H   0  0  0  0  0  0  0  0  0  0  0  0
   -4.3142    0.7969   -0.0152 H   0  0  0  0  0  0  0  0  0  0  0  0
    3.8642   -1.5235   -2.1188 H   0  0  0  0  0  0  0  0  0  0  0  0
    5.9866   -2.7977   -2.1022 H   0  0  0  0  0  0  0  0  0  0  0  0
    5.9255   -2.8597    2.1998 H   0  0  0  0  0  0  0  0  0  0  0  0
    3.8083   -1.6014    2.1957 H   0  0  0  0  0  0  0  0  0  0  0  0
    7.4488   -3.9304    0.8992 H   0  0  0  0  0  0  0  0  0  0  0  0
  1  2  1  0  0  0  0
  1  6  1  0  0  0  0
  1 19  1  0  0  0  0
  1 20  1  0  0  0  0
  2  3  2  0  0  0  0
  2 12  1  0  0  0  0
  3  4  1  0  0  0  0
  3 21  1  0  0  0  0
  4  5  2  0  0  0  0
  4 10  1  0  0  0  0
  5  6  1  0  0  0  0
  5  7  1  0  0  0  0
  7  8  2  0  0  0  0
  7 22  1  0  0  0  0
  8  9  1  0  0  0  0
  8 11  1  0  0  0  0
  9 10  2  0  0  0  0
  9 23  1  0  0  0  0
 10 24  1  0  0  0  0
 11 25  1  0  0  0  0
 12 13  2  0  0  0  0
 12 17  1  0  0  0  0
 13 14  1  0  0  0  0
 13 26  1  0  0  0  0
 14 15  2  0  0  0  0
 14 27  1  0  0  0  0
 15 16  1  0  0  0  0
 15 18  1  0  0  0  0
 16 17  2  0  0  0  0
 16 28  1  0  0  0  0
 17 29  1  0  0  0  0
 18 30  1  0  0  0  0
M  END
>  <Mol_ID>
5244

>  <Formula>
C15H12O3

>  <MolWeight>
240.25398

>  <Cat>
S9634

>  <Name>
Phenoxodiol (Haginin E)

>  <Synonyms>
Idronoxil, Dehydroequol, NV 06, PXD

>  <Target>
Apoptosis related,Caspase,IAP,Topoisomerase

>  <Form>
free base

>  <CAS>
81267-65-4

>  <URL>
http://www.selleckchem.com/products/phenoxodiol.html

$$$$
