Phenazine-1-carboxylic acid
 OpenBabel08302521373D

 25 27  0  0  0  0  0  0  0  0999 V2000
    1.0500    0.1302   -0.0218 C   0  0  0  0  0  0  0  0  0  0  0  0
    0.4001   -1.0511   -0.0615 O   0  0  0  0  0  0  0  0  0  0  0  0
    0.4522    1.1956    0.0242 O   0  0  0  0  0  0  0  0  0  0  0  0
    3.2355   -1.1475   -0.0903 C   0  0  0  0  0  0  0  0  0  0  0  0
    4.6488   -1.1125   -0.1268 C   0  0  0  0  0  0  0  0  0  0  0  0
    2.5402    0.0666   -0.0433 C   0  0  0  0  0  0  0  0  0  0  0  0
    2.5857   -2.3397   -0.0857 N   0  0  0  0  0  0  0  0  0  0  0  0
    5.3805   -2.2398   -0.1667 N   0  0  0  0  0  0  0  0  0  0  0  0
    5.3107    0.1077   -0.0981 C   0  0  0  0  0  0  0  0  0  0  0  0
    3.2284    1.2905   -0.0018 C   0  0  0  0  0  0  0  0  0  0  0  0
    3.3241   -3.4668   -0.0843 C   0  0  0  0  0  0  0  0  0  0  0  0
    4.7316   -3.4164   -0.1322 C   0  0  0  0  0  0  0  0  0  0  0  0
    4.6153    1.3106   -0.0261 C   0  0  0  0  0  0  0  0  0  0  0  0
    2.6894   -4.7000   -0.0111 C   0  0  0  0  0  0  0  0  0  0  0  0
    5.4488   -4.6078   -0.1205 C   0  0  0  0  0  0  0  0  0  0  0  0
    3.4180   -5.8892    0.0240 C   0  0  0  0  0  0  0  0  0  0  0  0
    4.8044   -5.8427   -0.0351 C   0  0  0  0  0  0  0  0  0  0  0  0
    1.0108   -1.8270   -0.0858 H   0  0  0  0  0  0  0  0  0  0  0  0
    6.3988    0.1181   -0.1185 H   0  0  0  0  0  0  0  0  0  0  0  0
    2.6786    2.2296    0.0541 H   0  0  0  0  0  0  0  0  0  0  0  0
    5.1529    2.2554    0.0135 H   0  0  0  0  0  0  0  0  0  0  0  0
    1.6030   -4.7392    0.0360 H   0  0  0  0  0  0  0  0  0  0  0  0
    6.5352   -4.5700   -0.1630 H   0  0  0  0  0  0  0  0  0  0  0  0
    2.9018   -6.8428    0.1025 H   0  0  0  0  0  0  0  0  0  0  0  0
    5.3858   -6.7610   -0.0070 H   0  0  0  0  0  0  0  0  0  0  0  0
  1  2  1  0  0  0  0
  1  3  2  0  0  0  0
  1  6  1  0  0  0  0
  2 18  1  0  0  0  0
  4  5  1  0  0  0  0
  4  6  2  0  0  0  0
  4  7  1  0  0  0  0
  5  8  1  0  0  0  0
  5  9  2  0  0  0  0
  6 10  1  0  0  0  0
  7 11  2  0  0  0  0
  8 12  2  0  0  0  0
  9 13  1  0  0  0  0
  9 19  1  0  0  0  0
 10 13  2  0  0  0  0
 10 20  1  0  0  0  0
 11 12  1  0  0  0  0
 11 14  1  0  0  0  0
 12 15  1  0  0  0  0
 13 21  1  0  0  0  0
 14 16  2  0  0  0  0
 14 22  1  0  0  0  0
 15 17  2  0  0  0  0
 15 23  1  0  0  0  0
 16 17  1  0  0  0  0
 16 24  1  0  0  0  0
 17 25  1  0  0  0  0
M  END
>  <Mol_ID>
7420

>  <Formula>
C13H8N2O2

>  <MolWeight>
224.21482

>  <Cat>
E4520

>  <Name>
Phenazine-1-carboxylic acid

>  <Synonyms>
Phenazine-1-carboxylic acid

>  <Target>
Antifungal

>  <Form>
Free base

>  <CAS>
2538-68-3

>  <URL>
https://www.selleckchem.com/products/phenazine-1-carboxylic-acid.html

$$$$
