Phenyl salicylate
 OpenBabel08302521373D

 26 27  0  0  0  0  0  0  0  0999 V2000
    0.9133   -0.0942    0.2265 C   0  0  0  0  0  0  0  0  0  0  0  0
    0.3559    1.1277   -0.1232 O   0  0  0  0  0  0  0  0  0  0  0  0
    0.3167   -1.1359    0.4703 O   0  0  0  0  0  0  0  0  0  0  0  0
    2.5104   -2.4083    0.9042 O   0  0  0  0  0  0  0  0  0  0  0  0
    2.4036   -0.0493    0.2525 C   0  0  0  0  0  0  0  0  0  0  0  0
    3.1130   -1.2221    0.5720 C   0  0  0  0  0  0  0  0  0  0  0  0
    3.1289    1.1117   -0.0552 C   0  0  0  0  0  0  0  0  0  0  0  0
    4.5077   -1.2421    0.5670 C   0  0  0  0  0  0  0  0  0  0  0  0
    4.5306    1.0878   -0.0568 C   0  0  0  0  0  0  0  0  0  0  0  0
    5.2177   -0.0884    0.2474 C   0  0  0  0  0  0  0  0  0  0  0  0
   -1.0449    1.2876   -0.2735 C   0  0  0  0  0  0  0  0  0  0  0  0
   -1.9949    0.5648    0.4492 C   0  0  0  0  0  0  0  0  0  0  0  0
   -1.4542    2.2697   -1.1786 C   0  0  0  0  0  0  0  0  0  0  0  0
   -3.3563    0.7923    0.2291 C   0  0  0  0  0  0  0  0  0  0  0  0
   -2.8170    2.5015   -1.3871 C   0  0  0  0  0  0  0  0  0  0  0  0
   -3.7679    1.7575   -0.6893 C   0  0  0  0  0  0  0  0  0  0  0  0
    1.5359   -2.2892    0.8614 H   0  0  0  0  0  0  0  0  0  0  0  0
    2.6266    2.0427   -0.2995 H   0  0  0  0  0  0  0  0  0  0  0  0
    5.0361   -2.1614    0.8087 H   0  0  0  0  0  0  0  0  0  0  0  0
    5.0923    1.9870   -0.3005 H   0  0  0  0  0  0  0  0  0  0  0  0
    6.3053   -0.1091    0.2363 H   0  0  0  0  0  0  0  0  0  0  0  0
   -1.7077   -0.1815    1.1821 H   0  0  0  0  0  0  0  0  0  0  0  0
   -0.7199    2.8518   -1.7268 H   0  0  0  0  0  0  0  0  0  0  0  0
   -4.0967    0.2128    0.7761 H   0  0  0  0  0  0  0  0  0  0  0  0
   -3.1397    3.2605   -2.0952 H   0  0  0  0  0  0  0  0  0  0  0  0
   -4.8285    1.9299   -0.8569 H   0  0  0  0  0  0  0  0  0  0  0  0
  1  2  1  0  0  0  0
  1  3  2  0  0  0  0
  1  5  1  0  0  0  0
  2 11  1  0  0  0  0
  4  6  1  0  0  0  0
  4 17  1  0  0  0  0
  5  6  2  0  0  0  0
  5  7  1  0  0  0  0
  6  8  1  0  0  0  0
  7  9  2  0  0  0  0
  7 18  1  0  0  0  0
  8 10  2  0  0  0  0
  8 19  1  0  0  0  0
  9 10  1  0  0  0  0
  9 20  1  0  0  0  0
 10 21  1  0  0  0  0
 11 12  2  0  0  0  0
 11 13  1  0  0  0  0
 12 14  1  0  0  0  0
 12 22  1  0  0  0  0
 13 15  2  0  0  0  0
 13 23  1  0  0  0  0
 14 16  2  0  0  0  0
 14 24  1  0  0  0  0
 15 16  1  0  0  0  0
 15 25  1  0  0  0  0
 16 26  1  0  0  0  0
M  END
>  <Mol_ID>
7359

>  <Formula>
C13H10O3

>  <MolWeight>
214.2167

>  <Cat>
E4408

>  <Name>
Phenyl salicylate

>  <Synonyms>
Phenyl salicylate

>  <Target>
Others

>  <Form>
free base

>  <CAS>
118-55-8

>  <URL>
https://www.selleckchem.com/products/phenyl-salicylate.html

$$$$
