Phenacetin.cdx
 OpenBabel08302521453D

 26 26  0  0  0  0  0  0  0  0999 V2000
    1.4492   -0.1429    0.1102 C   0  0  0  0  0  0  0  0  0  0  0  0
    0.6118   -1.2488   -0.0243 C   0  0  0  0  0  0  0  0  0  0  0  0
   -0.7677   -1.0495   -0.0458 C   0  0  0  0  0  0  0  0  0  0  0  0
   -1.3096    0.2367    0.0664 C   0  0  0  0  0  0  0  0  0  0  0  0
   -0.4786    1.3486    0.1991 C   0  0  0  0  0  0  0  0  0  0  0  0
    0.9069    1.1462    0.2176 C   0  0  0  0  0  0  0  0  0  0  0  0
    1.0076   -2.5517   -0.1462 O   0  0  0  0  0  0  0  0  0  0  0  0
    2.4117   -2.8003   -0.1252 C   0  0  0  0  0  0  0  0  0  0  0  0
    2.6448   -4.2863   -0.3306 C   0  0  0  0  0  0  0  0  0  0  0  0
   -0.9472    2.6754    0.3176 N   0  0  0  0  0  0  0  0  0  0  0  0
   -2.2650    3.0949    0.3539 C   0  0  0  0  0  0  0  0  0  0  0  0
   -2.4152    4.5901    0.4865 C   0  0  0  0  0  0  0  0  0  0  0  0
   -3.2644    2.3882    0.2927 O   0  0  0  0  0  0  0  0  0  0  0  0
    2.5286   -0.2441    0.1355 H   0  0  0  0  0  0  0  0  0  0  0  0
   -1.4377   -1.8995   -0.1494 H   0  0  0  0  0  0  0  0  0  0  0  0
   -2.3910    0.3297    0.0420 H   0  0  0  0  0  0  0  0  0  0  0  0
    1.5910    1.9851    0.3160 H   0  0  0  0  0  0  0  0  0  0  0  0
    2.9073   -2.2528   -0.9349 H   0  0  0  0  0  0  0  0  0  0  0  0
    2.8299   -2.5029    0.8433 H   0  0  0  0  0  0  0  0  0  0  0  0
    2.2298   -4.6139   -1.2895 H   0  0  0  0  0  0  0  0  0  0  0  0
    3.7147   -4.5137   -0.3145 H   0  0  0  0  0  0  0  0  0  0  0  0
    2.1476   -4.8704    0.4505 H   0  0  0  0  0  0  0  0  0  0  0  0
   -0.2345    3.3897    0.3951 H   0  0  0  0  0  0  0  0  0  0  0  0
   -2.9814    4.9648   -0.3708 H   0  0  0  0  0  0  0  0  0  0  0  0
   -2.9601    4.8083    1.4092 H   0  0  0  0  0  0  0  0  0  0  0  0
   -1.4526    5.1059    0.5199 H   0  0  0  0  0  0  0  0  0  0  0  0
  1  2  2  0  0  0  0
  1 14  1  0  0  0  0
  2  3  1  0  0  0  0
  2  7  1  0  0  0  0
  3  4  2  0  0  0  0
  3 15  1  0  0  0  0
  4  5  1  0  0  0  0
  4 16  1  0  0  0  0
  5  6  2  0  0  0  0
  5 10  1  0  0  0  0
  6  1  1  0  0  0  0
  6 17  1  0  0  0  0
  7  8  1  0  0  0  0
  8  9  1  0  0  0  0
  8 18  1  0  0  0  0
  8 19  1  0  0  0  0
  9 20  1  0  0  0  0
  9 21  1  0  0  0  0
  9 22  1  0  0  0  0
 10 11  1  0  0  0  0
 10 23  1  0  0  0  0
 11 12  1  0  0  0  0
 11 13  2  0  0  0  0
 12 24  1  0  0  0  0
 12 25  1  0  0  0  0
 12 26  1  0  0  0  0
M  END
>  <Mol_ID>
938

>  <Formula>
C10H13NO2

>  <MolWeight>
179.21572

>  <Cat>
S2577

>  <Name>
Phenacetin

>  <Synonyms>
Acetophenetidin

>  <Target>
COX

>  <Form>
free base

>  <CAS>
62-44-2

>  <URL>
http://selleckchem.com/products/phenacetin.html

$$$$
