Phenylethyl isothiocyanate
 OpenBabel08302521363D

 20 20  0  0  0  0  0  0  0  0999 V2000
    1.0096   -0.0413    0.0449 C   0  0  0  0  0  0  0  0  0  0  0  0
    0.6662   -1.2068   -0.8952 C   0  0  0  0  0  0  0  0  0  0  0  0
    1.1476   -0.8957   -2.2543 N   0  0  0  0  0  0  0  0  0  0  0  0
    0.9412   -1.7346   -3.0525 C   0  0  0  0  0  0  0  0  0  0  0  0
    0.6658   -2.8644   -4.1382 S   0  0  0  0  0  0  0  0  0  0  0  0
    0.5606   -0.1885    1.4861 C   0  0  0  0  0  0  0  0  0  0  0  0
    0.4218   -1.4325    2.1185 C   0  0  0  0  0  0  0  0  0  0  0  0
    0.3530    0.9698    2.2546 C   0  0  0  0  0  0  0  0  0  0  0  0
    0.0762   -1.5156    3.4711 C   0  0  0  0  0  0  0  0  0  0  0  0
    0.0083    0.8859    3.6070 C   0  0  0  0  0  0  0  0  0  0  0  0
   -0.1272   -0.3578    4.2163 C   0  0  0  0  0  0  0  0  0  0  0  0
    0.5634    0.8721   -0.3717 H   0  0  0  0  0  0  0  0  0  0  0  0
    2.0961    0.1160    0.0469 H   0  0  0  0  0  0  0  0  0  0  0  0
    1.1407   -2.1301   -0.5407 H   0  0  0  0  0  0  0  0  0  0  0  0
   -0.4214   -1.3590   -0.9066 H   0  0  0  0  0  0  0  0  0  0  0  0
    0.5904   -2.3614    1.5823 H   0  0  0  0  0  0  0  0  0  0  0  0
    0.4678    1.9544    1.8053 H   0  0  0  0  0  0  0  0  0  0  0  0
   -0.0232   -2.4886    3.9457 H   0  0  0  0  0  0  0  0  0  0  0  0
   -0.1448    1.7927    4.1870 H   0  0  0  0  0  0  0  0  0  0  0  0
   -0.3828   -0.4256    5.2704 H   0  0  0  0  0  0  0  0  0  0  0  0
  1  2  1  0  0  0  0
  1  6  1  0  0  0  0
  1 12  1  0  0  0  0
  1 13  1  0  0  0  0
  2  3  1  0  0  0  0
  2 14  1  0  0  0  0
  2 15  1  0  0  0  0
  3  4  2  0  0  0  0
  4  5  2  0  0  0  0
  6  7  2  0  0  0  0
  6  8  1  0  0  0  0
  7  9  1  0  0  0  0
  7 16  1  0  0  0  0
  8 10  2  0  0  0  0
  8 17  1  0  0  0  0
  9 11  2  0  0  0  0
  9 18  1  0  0  0  0
 10 11  1  0  0  0  0
 10 19  1  0  0  0  0
 11 20  1  0  0  0  0
M  END
>  <Mol_ID>
7317

>  <Formula>
C9H9NS

>  <MolWeight>
163.23946

>  <Cat>
E4354

>  <Name>
Phenylethyl isothiocyanate

>  <Synonyms>
Phenylethyl isothiocyanate

>  <Target>
HDAC

>  <Form>
free base

>  <CAS>
2257-09-2

>  <URL>
https://www.selleckchem.com/products/phenylethyl-isothiocyanate.html

$$$$
