Phenylpropiolic acid
 OpenBabel08302521363D

 17 17  0  0  0  0  0  0  0  0999 V2000
    1.0647    0.0952   -0.0030 C   0  0  0  0  0  0  0  0  0  0  0  0
   -0.1376    0.0889    0.0341 C   0  0  0  0  0  0  0  0  0  0  0  0
   -1.5754    0.0888    0.0986 C   0  0  0  0  0  0  0  0  0  0  0  0
   -2.1844   -0.0690   -1.0978 O   0  0  0  0  0  0  0  0  0  0  0  0
   -2.1675    0.2219    1.1540 O   0  0  0  0  0  0  0  0  0  0  0  0
    2.4948    0.1116   -0.0492 C   0  0  0  0  0  0  0  0  0  0  0  0
    3.1807    1.3285   -0.0771 C   0  0  0  0  0  0  0  0  0  0  0  0
    3.2092   -1.0886   -0.0815 C   0  0  0  0  0  0  0  0  0  0  0  0
    4.5741    1.3445   -0.1691 C   0  0  0  0  0  0  0  0  0  0  0  0
    4.6030   -1.0709   -0.1669 C   0  0  0  0  0  0  0  0  0  0  0  0
    5.2841    0.1452   -0.2214 C   0  0  0  0  0  0  0  0  0  0  0  0
   -1.5392   -0.1574   -1.8244 H   0  0  0  0  0  0  0  0  0  0  0  0
    2.6383    2.2702   -0.0305 H   0  0  0  0  0  0  0  0  0  0  0  0
    2.6892   -2.0426   -0.0419 H   0  0  0  0  0  0  0  0  0  0  0  0
    5.1062    2.2922   -0.2015 H   0  0  0  0  0  0  0  0  0  0  0  0
    5.1580   -2.0054   -0.1933 H   0  0  0  0  0  0  0  0  0  0  0  0
    6.3683    0.1581   -0.3015 H   0  0  0  0  0  0  0  0  0  0  0  0
  1  2  3  0  0  0  0
  1  6  1  0  0  0  0
  2  3  1  0  0  0  0
  3  4  1  0  0  0  0
  3  5  2  0  0  0  0
  4 12  1  0  0  0  0
  6  7  2  0  0  0  0
  6  8  1  0  0  0  0
  7  9  1  0  0  0  0
  7 13  1  0  0  0  0
  8 10  2  0  0  0  0
  8 14  1  0  0  0  0
  9 11  2  0  0  0  0
  9 15  1  0  0  0  0
 10 11  1  0  0  0  0
 10 16  1  0  0  0  0
 11 17  1  0  0  0  0
M  END
>  <Mol_ID>
7155

>  <Formula>
C9H6O2

>  <MolWeight>
146.14274

>  <Cat>
E4145

>  <Name>
Phenylpropiolic acid

>  <Synonyms>
Phenylpropynoic acid

>  <Target>
Others

>  <Form>
Free base

>  <CAS>
637-44-5

>  <URL>
https://www.selleckchem.com/products/phenylpropiolic-acid.html

$$$$
