Phorbol
 OpenBabel08302521323D

 54 57  0  0  0  0  0  0  0  0999 V2000
    1.7192    1.9860    0.0060 C   0  0  1  0  0  0  0  0  0  0  0  0
    0.2397    2.0652   -0.3375 C   0  0  1  0  0  0  0  0  0  0  0  0
    2.6644    3.1191    0.0530 C   0  0  2  0  0  0  0  0  0  0  0  0
    2.3205    2.4545    1.4049 C   0  0  0  0  0  0  0  0  0  0  0  0
   -0.2319    3.4214   -0.9540 C   0  0  1  0  0  0  0  0  0  0  0  0
   -0.4061    0.9535   -1.1817 C   0  0  0  0  0  0  0  0  0  0  0  0
    2.0971    4.4485   -0.4934 C   0  0  1  0  0  0  0  0  0  0  0  0
    4.0332    2.8920   -0.3296 O   0  0  0  0  0  0  0  0  0  0  0  0
    3.0315    1.2823    2.0705 C   0  0  0  0  0  0  0  0  0  0  0  0
    2.2237    3.5799    2.4042 C   0  0  0  0  0  0  0  0  0  0  0  0
   -1.4241    3.8963   -0.0470 C   0  0  1  0  0  0  0  0  0  0  0  0
    0.9956    4.2058   -1.5104 C   0  0  1  0  0  0  0  0  0  0  0  0
   -0.9591    3.3063   -2.2536 O   0  0  0  0  0  0  0  0  0  0  0  0
   -1.7316    0.9335   -1.5477 C   0  0  0  0  0  0  0  0  0  0  0  0
    1.5375    5.3191    0.4809 O   0  0  0  0  0  0  0  0  0  0  0  0
   -2.4356    2.6705    0.2201 C   0  0  2  0  0  0  0  0  0  0  0  0
   -1.3901    4.4507    1.3663 C   0  0  0  0  0  0  0  0  0  0  0  0
    1.6224    3.4737   -2.7556 C   0  0  0  0  0  0  0  0  0  0  0  0
   -2.8709    1.8180   -0.9561 C   0  0  0  0  0  0  0  0  0  0  0  0
   -2.1507    0.1767   -2.7835 C   0  0  0  0  0  0  0  0  0  0  0  0
   -3.3891    3.4505    1.0629 C   0  0  0  0  0  0  0  0  0  0  0  0
   -2.0295    1.7236    1.2845 O   0  0  0  0  0  0  0  0  0  0  0  0
   -2.5325    4.1894    2.0403 C   0  0  0  0  0  0  0  0  0  0  0  0
   -2.6143    1.1223   -3.7424 O   0  0  0  0  0  0  0  0  0  0  0  0
   -4.6015    3.5134    0.9891 O   0  0  0  0  0  0  0  0  0  0  0  0
   -2.7515    4.0070    3.4942 C   0  0  0  0  0  0  0  0  0  0  0  0
    2.1239    1.0608   -0.3983 H   0  0  0  0  0  0  0  0  0  0  0  0
   -0.1080    1.9465    0.6804 H   0  0  0  0  0  0  0  0  0  0  0  0
    0.2841    0.3107   -1.7061 H   0  0  0  0  0  0  0  0  0  0  0  0
    2.9107    5.0006   -0.9810 H   0  0  0  0  0  0  0  0  0  0  0  0
    4.1038    2.3817   -1.1526 H   0  0  0  0  0  0  0  0  0  0  0  0
    2.8632    0.3368    1.5324 H   0  0  0  0  0  0  0  0  0  0  0  0
    2.6268    1.1195    3.0689 H   0  0  0  0  0  0  0  0  0  0  0  0
    4.1019    1.4635    2.1489 H   0  0  0  0  0  0  0  0  0  0  0  0
    2.5962    3.2739    3.4042 H   0  0  0  0  0  0  0  0  0  0  0  0
    1.2155    3.9458    2.5810 H   0  0  0  0  0  0  0  0  0  0  0  0
    2.9036    4.4118    2.1723 H   0  0  0  0  0  0  0  0  0  0  0  0
   -1.9561    4.6635   -0.6334 H   0  0  0  0  0  0  0  0  0  0  0  0
    0.6275    5.1762   -1.8739 H   0  0  0  0  0  0  0  0  0  0  0  0
   -1.1813    4.2089   -2.5479 H   0  0  0  0  0  0  0  0  0  0  0  0
    2.2692    5.8611    0.8242 H   0  0  0  0  0  0  0  0  0  0  0  0
   -0.4914    4.8117    1.8390 H   0  0  0  0  0  0  0  0  0  0  0  0
    2.6093    3.0484   -2.5556 H   0  0  0  0  0  0  0  0  0  0  0  0
    1.0201    2.6400   -3.1306 H   0  0  0  0  0  0  0  0  0  0  0  0
    1.7473    4.1765   -3.5853 H   0  0  0  0  0  0  0  0  0  0  0  0
   -3.6631    1.1308   -0.6237 H   0  0  0  0  0  0  0  0  0  0  0  0
   -3.3223    2.4515   -1.7260 H   0  0  0  0  0  0  0  0  0  0  0  0
   -1.3141   -0.3572   -3.2443 H   0  0  0  0  0  0  0  0  0  0  0  0
   -2.9491   -0.5372   -2.5712 H   0  0  0  0  0  0  0  0  0  0  0  0
   -2.1338    0.8150    0.9537 H   0  0  0  0  0  0  0  0  0  0  0  0
   -2.0495    1.9161   -3.6380 H   0  0  0  0  0  0  0  0  0  0  0  0
   -3.7754    4.2523    3.7835 H   0  0  0  0  0  0  0  0  0  0  0  0
   -2.0483    4.5829    4.0984 H   0  0  0  0  0  0  0  0  0  0  0  0
   -2.5943    2.9450    3.7357 H   0  0  0  0  0  0  0  0  0  0  0  0
  1  2  1  0  0  0  0
  1  3  1  0  0  0  0
  1  4  1  0  0  0  0
  1 27  1  6  0  0  0
  2  5  1  0  0  0  0
  2  6  1  0  0  0  0
  2 28  1  1  0  0  0
  3  7  1  0  0  0  0
  3  4  1  0  0  0  0
  3  8  1  6  0  0  0
  4  9  1  0  0  0  0
  4 10  1  0  0  0  0
  5 11  1  0  0  0  0
  5 12  1  0  0  0  0
  5 13  1  6  0  0  0
  6 14  2  0  0  0  0
  6 29  1  0  0  0  0
  7 12  1  0  0  0  0
  7 15  1  0  0  0  0
  7 30  1  6  0  0  0
  8 31  1  0  0  0  0
  9 32  1  0  0  0  0
  9 33  1  0  0  0  0
  9 34  1  0  0  0  0
 10 35  1  0  0  0  0
 10 36  1  0  0  0  0
 10 37  1  0  0  0  0
 11 16  1  0  0  0  0
 11 17  1  0  0  0  0
 11 38  1  6  0  0  0
 12 39  1  6  0  0  0
 12 18  1  0  0  0  0
 13 40  1  0  0  0  0
 14 19  1  0  0  0  0
 14 20  1  0  0  0  0
 15 41  1  0  0  0  0
 16 21  1  0  0  0  0
 16 19  1  0  0  0  0
 16 22  1  1  0  0  0
 17 23  2  0  0  0  0
 17 42  1  0  0  0  0
 18 43  1  0  0  0  0
 18 44  1  0  0  0  0
 18 45  1  0  0  0  0
 19 46  1  0  0  0  0
 19 47  1  0  0  0  0
 20 24  1  0  0  0  0
 20 48  1  0  0  0  0
 20 49  1  0  0  0  0
 21 23  1  0  0  0  0
 21 25  2  0  0  0  0
 22 50  1  0  0  0  0
 23 26  1  0  0  0  0
 24 51  1  0  0  0  0
 26 52  1  0  0  0  0
 26 53  1  0  0  0  0
 26 54  1  0  0  0  0
M  END
>  <Mol_ID>
5321

>  <Formula>
C20H28O6

>  <MolWeight>
364.43272

>  <Cat>
S9389

>  <Name>
Phorbol

>  <Synonyms>
N/A

>  <Target>
Others

>  <Form>
Free Base

>  <CAS>
17673-25-5

>  <URL>
https://www.selleckchem.com/products/phorbol.html

$$$$
