Phosphonoacetic acid
 OpenBabel08302521303D

 13 12  0  0  0  0  0  0  0  0999 V2000
    0.0482   -0.8079    1.5544 O   0  0  0  0  0  0  0  0  0  0  0  0
    0.3529   -1.6888    0.0970 P   0  0  0  0  0  0  0  0  0  0  0  0
   -1.2908   -1.1547   -0.5725 C   0  0  0  0  0  0  0  0  0  0  0  0
   -1.3445    0.0835   -1.4053 C   0  0  0  0  0  0  0  0  0  0  0  0
   -0.2157    0.7889   -1.5877 O   0  0  0  0  0  0  0  0  0  0  0  0
    1.3706   -0.6259   -0.3309 O   0  0  0  0  0  0  0  0  0  0  0  0
    0.6575   -2.5696   -1.3605 O   0  0  0  0  0  0  0  0  0  0  0  0
   -2.3986    0.4590   -1.9087 O   0  0  0  0  0  0  0  0  0  0  0  0
    0.3164    0.1264    1.4325 H   0  0  0  0  0  0  0  0  0  0  0  0
   -1.6824   -1.9801   -1.1778 H   0  0  0  0  0  0  0  0  0  0  0  0
   -1.9730   -1.0166    0.2752 H   0  0  0  0  0  0  0  0  0  0  0  0
    0.6108    0.4445   -1.1636 H   0  0  0  0  0  0  0  0  0  0  0  0
    1.0598   -1.9711   -2.0239 H   0  0  0  0  0  0  0  0  0  0  0  0
  1  2  1  0  0  0  0
  1  9  1  0  0  0  0
  2  3  1  0  0  0  0
  2  6  2  0  0  0  0
  2  7  1  0  0  0  0
  3  4  1  0  0  0  0
  3 10  1  0  0  0  0
  3 11  1  0  0  0  0
  4  5  1  0  0  0  0
  4  8  2  0  0  0  0
  5 12  1  0  0  0  0
  7 13  1  0  0  0  0
M  END
>  <Mol_ID>
5509

>  <Formula>
C2H5O5P

>  <MolWeight>
140.031861

>  <Cat>
S3356

>  <Name>
Phosphonoacetic acid

>  <Synonyms>
PAA

>  <Target>
Antiviral,DNA/RNA Synthesis

>  <Form>
Free Base

>  <CAS>
4408-78-0

>  <URL>
https://www.selleckchem.com/products/phosphonoacetic-acid.html

$$$$
