PI-1840.cdx
 OpenBabel08302519583D

 55 57  0  0  0  0  0  0  0  0999 V2000
    1.7485    2.5114    2.7083 C   0  0  0  0  0  0  0  0  0  0  0  0
    1.4231    3.6056    3.5210 C   0  0  0  0  0  0  0  0  0  0  0  0
    0.1480    4.1665    3.4010 C   0  0  0  0  0  0  0  0  0  0  0  0
   -0.7684    3.6779    2.4701 C   0  0  0  0  0  0  0  0  0  0  0  0
   -0.4347    2.6083    1.6345 C   0  0  0  0  0  0  0  0  0  0  0  0
    0.8259    2.0206    1.7706 C   0  0  0  0  0  0  0  0  0  0  0  0
    2.3913    4.1877    4.5216 C   0  0  0  0  0  0  0  0  0  0  0  0
    3.6989    4.7223    3.9296 C   0  0  0  0  0  0  0  0  0  0  0  0
    3.4998    5.8091    2.8812 C   0  0  0  0  0  0  0  0  0  0  0  0
   -1.2684    2.0677    0.6856 O   0  0  0  0  0  0  0  0  0  0  0  0
   -2.4316    2.8348    0.3924 C   0  0  0  0  0  0  0  0  0  0  0  0
   -3.2101    2.2961   -0.8128 C   0  0  0  0  0  0  0  0  0  0  0  0
   -4.1985    1.3258   -0.6373 N   0  0  0  0  0  0  0  0  0  0  0  0
   -4.8646    0.8617   -1.8694 C   0  0  0  0  0  0  0  0  0  0  0  0
   -6.1293    1.6011   -2.1450 C   0  0  0  0  0  0  0  0  0  0  0  0
   -2.9701    2.7599   -1.9325 O   0  0  0  0  0  0  0  0  0  0  0  0
   -4.5686    0.7010    0.6561 C   0  0  0  0  0  0  0  0  0  0  0  0
   -6.0757    0.7426    0.9349 C   0  0  0  0  0  0  0  0  0  0  0  0
   -4.0358   -0.7283    0.7722 C   0  0  0  0  0  0  0  0  0  0  0  0
   -7.3557    1.1381   -2.2478 N   0  0  0  0  0  0  0  0  0  0  0  0
   -8.0896    2.2761   -2.5088 C   0  0  0  0  0  0  0  0  0  0  0  0
   -7.3497    3.3970   -2.5574 N   0  0  0  0  0  0  0  0  0  0  0  0
   -6.0479    2.9530   -2.3231 O   0  0  0  0  0  0  0  0  0  0  0  0
   -9.5278    2.2425   -2.7053 C   0  0  0  0  0  0  0  0  0  0  0  0
  -10.2701    3.3932   -2.9967 C   0  0  0  0  0  0  0  0  0  0  0  0
  -11.6491    3.3033   -3.1752 C   0  0  0  0  0  0  0  0  0  0  0  0
  -12.2499    2.0606   -3.0559 C   0  0  0  0  0  0  0  0  0  0  0  0
  -11.5724    0.9271   -2.7773 N   0  0  0  0  0  0  0  0  0  0  0  0
  -10.2307    1.0453   -2.6109 C   0  0  0  0  0  0  0  0  0  0  0  0
    2.7240    2.0359    2.7937 H   0  0  0  0  0  0  0  0  0  0  0  0
   -0.1458    5.0037    4.0340 H   0  0  0  0  0  0  0  0  0  0  0  0
   -1.7334    4.1659    2.4283 H   0  0  0  0  0  0  0  0  0  0  0  0
    1.1049    1.1825    1.1359 H   0  0  0  0  0  0  0  0  0  0  0  0
    1.9052    5.0045    5.0709 H   0  0  0  0  0  0  0  0  0  0  0  0
    2.6175    3.4194    5.2725 H   0  0  0  0  0  0  0  0  0  0  0  0
    4.2971    5.1380    4.7492 H   0  0  0  0  0  0  0  0  0  0  0  0
    4.2853    3.9047    3.4946 H   0  0  0  0  0  0  0  0  0  0  0  0
    2.8391    6.6014    3.2460 H   0  0  0  0  0  0  0  0  0  0  0  0
    4.4632    6.2624    2.6259 H   0  0  0  0  0  0  0  0  0  0  0  0
    3.0739    5.3990    1.9600 H   0  0  0  0  0  0  0  0  0  0  0  0
   -3.0892    2.8997    1.2620 H   0  0  0  0  0  0  0  0  0  0  0  0
   -2.1485    3.8630    0.1248 H   0  0  0  0  0  0  0  0  0  0  0  0
   -4.1994    0.9751   -2.7320 H   0  0  0  0  0  0  0  0  0  0  0  0
   -5.0724   -0.2079   -1.7834 H   0  0  0  0  0  0  0  0  0  0  0  0
   -4.1034    1.2574    1.4688 H   0  0  0  0  0  0  0  0  0  0  0  0
   -6.6426    0.1307    0.2275 H   0  0  0  0  0  0  0  0  0  0  0  0
   -6.2926    0.3593    1.9382 H   0  0  0  0  0  0  0  0  0  0  0  0
   -6.4521    1.7697    0.8826 H   0  0  0  0  0  0  0  0  0  0  0  0
   -2.9393   -0.7352    0.7116 H   0  0  0  0  0  0  0  0  0  0  0  0
   -4.3209   -1.1705    1.7307 H   0  0  0  0  0  0  0  0  0  0  0  0
   -4.4177   -1.3780   -0.0202 H   0  0  0  0  0  0  0  0  0  0  0  0
   -9.7814    4.3609   -3.0879 H   0  0  0  0  0  0  0  0  0  0  0  0
  -12.2407    4.1833   -3.4025 H   0  0  0  0  0  0  0  0  0  0  0  0
  -13.3218    1.9409   -3.1857 H   0  0  0  0  0  0  0  0  0  0  0  0
   -9.7229    0.1095   -2.3907 H   0  0  0  0  0  0  0  0  0  0  0  0
  1  2  2  0  0  0  0
  1 30  1  0  0  0  0
  2  3  1  0  0  0  0
  2  7  1  0  0  0  0
  3  4  2  0  0  0  0
  3 31  1  0  0  0  0
  4  5  1  0  0  0  0
  4 32  1  0  0  0  0
  5  6  2  0  0  0  0
  5 10  1  0  0  0  0
  6  1  1  0  0  0  0
  6 33  1  0  0  0  0
  7  8  1  0  0  0  0
  7 34  1  0  0  0  0
  7 35  1  0  0  0  0
  8  9  1  0  0  0  0
  8 36  1  0  0  0  0
  8 37  1  0  0  0  0
  9 38  1  0  0  0  0
  9 39  1  0  0  0  0
  9 40  1  0  0  0  0
 10 11  1  0  0  0  0
 11 12  1  0  0  0  0
 11 41  1  0  0  0  0
 11 42  1  0  0  0  0
 12 13  1  0  0  0  0
 12 16  2  0  0  0  0
 13 14  1  0  0  0  0
 13 17  1  0  0  0  0
 14 15  1  0  0  0  0
 14 43  1  0  0  0  0
 14 44  1  0  0  0  0
 15 20  2  0  0  0  0
 17 18  1  0  0  0  0
 17 19  1  0  0  0  0
 17 45  1  0  0  0  0
 18 46  1  0  0  0  0
 18 47  1  0  0  0  0
 18 48  1  0  0  0  0
 19 49  1  0  0  0  0
 19 50  1  0  0  0  0
 19 51  1  0  0  0  0
 20 21  1  0  0  0  0
 21 22  2  0  0  0  0
 21 24  1  0  0  0  0
 22 23  1  0  0  0  0
 23 15  1  0  0  0  0
 24 25  2  0  0  0  0
 25 26  1  0  0  0  0
 25 52  1  0  0  0  0
 26 27  2  0  0  0  0
 26 53  1  0  0  0  0
 27 28  1  0  0  0  0
 27 54  1  0  0  0  0
 28 29  2  0  0  0  0
 29 24  1  0  0  0  0
 29 55  1  0  0  0  0
M  END
>  <Mol_ID>
2430

>  <Formula>
C22H26N4O3

>  <MolWeight>
394.46684

>  <Cat>
S7462

>  <Name>
PI-1840

>  <Synonyms>
N/A

>  <Target>
Proteasome

>  <Form>
free base

>  <CAS>
1401223-22-0

>  <URL>
http://selleckchem.com/products/pi-1840.html

$$$$
