PI-273
 OpenBabel08302521343D

 40 41  0  0  0  0  0  0  0  0999 V2000
   -1.4798    0.0517    0.3386 C   0  0  0  0  0  0  0  0  0  0  0  0
   -1.3146   -1.3186    0.1739 C   0  0  0  0  0  0  0  0  0  0  0  0
    0.1005   -1.6717    0.1788 C   0  0  0  0  0  0  0  0  0  0  0  0
    0.8959   -0.5364    0.2808 C   0  0  0  0  0  0  0  0  0  0  0  0
   -0.0263    0.8696    0.5933 S   0  0  0  0  0  0  0  0  0  0  0  0
   -2.4212   -2.2574   -0.0610 C   0  0  0  0  0  0  0  0  0  0  0  0
   -2.3010   -3.3248   -0.6512 O   0  0  0  0  0  0  0  0  0  0  0  0
   -3.6460   -1.8861    0.4262 N   0  0  0  0  0  0  0  0  0  0  0  0
    2.3769   -0.3987    0.1333 C   0  0  0  0  0  0  0  0  0  0  0  0
    0.6356   -3.0811    0.0491 C   0  0  0  0  0  0  0  0  0  0  0  0
    0.9231   -3.4981   -1.3851 C   0  0  0  0  0  0  0  0  0  0  0  0
   -2.6586    0.7500    0.1589 N   0  0  0  0  0  0  0  0  0  0  0  0
   -2.9938    2.0648    0.2899 C   0  0  0  0  0  0  0  0  0  0  0  0
   -4.2546    2.5392   -0.7132 S   0  0  0  0  0  0  0  0  0  0  0  0
   -2.3719    2.8127    1.2700 N   0  0  0  0  0  0  0  0  0  0  0  0
   -2.8142    4.0400    1.7729 C   0  0  0  0  0  0  0  0  0  0  0  0
   -1.9413    4.8065    2.7201 C   0  0  0  0  0  0  0  0  0  0  0  0
   -0.6089    4.5005    3.0136 C   0  0  0  0  0  0  0  0  0  0  0  0
    0.1040    5.3083    3.9160 C   0  0  0  0  0  0  0  0  0  0  0  0
   -0.4982    6.4190    4.5152 C   0  0  0  0  0  0  0  0  0  0  0  0
   -1.8177    6.7362    4.2176 C   0  0  0  0  0  0  0  0  0  0  0  0
   -2.5319    5.9358    3.3280 C   0  0  0  0  0  0  0  0  0  0  0  0
   -3.9289    4.5025    1.5517 O   0  0  0  0  0  0  0  0  0  0  0  0
   -3.7326   -1.1879    1.1532 H   0  0  0  0  0  0  0  0  0  0  0  0
   -4.3901   -2.5660    0.3355 H   0  0  0  0  0  0  0  0  0  0  0  0
    2.6046    0.1587   -0.7831 H   0  0  0  0  0  0  0  0  0  0  0  0
    2.8137    0.1363    0.9817 H   0  0  0  0  0  0  0  0  0  0  0  0
    2.8751   -1.3687    0.0539 H   0  0  0  0  0  0  0  0  0  0  0  0
    1.5584   -3.1704    0.6357 H   0  0  0  0  0  0  0  0  0  0  0  0
   -0.0624   -3.7923    0.5058 H   0  0  0  0  0  0  0  0  0  0  0  0
    1.6180   -2.8074   -1.8733 H   0  0  0  0  0  0  0  0  0  0  0  0
    1.3728   -4.4969   -1.4017 H   0  0  0  0  0  0  0  0  0  0  0  0
    0.0086   -3.5331   -1.9848 H   0  0  0  0  0  0  0  0  0  0  0  0
   -3.3516    0.2433   -0.3909 H   0  0  0  0  0  0  0  0  0  0  0  0
   -1.5364    2.4047    1.6590 H   0  0  0  0  0  0  0  0  0  0  0  0
   -0.0928    3.6645    2.5572 H   0  0  0  0  0  0  0  0  0  0  0  0
    1.1402    5.0780    4.1487 H   0  0  0  0  0  0  0  0  0  0  0  0
    0.0625    7.0425    5.2080 H   0  0  0  0  0  0  0  0  0  0  0  0
   -2.2947    7.6045    4.6670 H   0  0  0  0  0  0  0  0  0  0  0  0
   -3.5641    6.2065    3.1035 H   0  0  0  0  0  0  0  0  0  0  0  0
  1  2  2  0  0  0  0
  1  5  1  0  0  0  0
  1 12  1  0  0  0  0
  2  3  1  0  0  0  0
  2  6  1  0  0  0  0
  3  4  2  0  0  0  0
  3 10  1  0  0  0  0
  4  5  1  0  0  0  0
  4  9  1  0  0  0  0
  6  7  2  0  0  0  0
  6  8  1  0  0  0  0
  8 24  1  0  0  0  0
  8 25  1  0  0  0  0
  9 26  1  0  0  0  0
  9 27  1  0  0  0  0
  9 28  1  0  0  0  0
 10 11  1  0  0  0  0
 10 29  1  0  0  0  0
 10 30  1  0  0  0  0
 11 31  1  0  0  0  0
 11 32  1  0  0  0  0
 11 33  1  0  0  0  0
 12 13  1  0  0  0  0
 12 34  1  0  0  0  0
 13 14  2  0  0  0  0
 13 15  1  0  0  0  0
 15 16  1  0  0  0  0
 15 35  1  0  0  0  0
 16 17  1  0  0  0  0
 16 23  2  0  0  0  0
 17 18  2  0  0  0  0
 17 22  1  0  0  0  0
 18 19  1  0  0  0  0
 18 36  1  0  0  0  0
 19 20  2  0  0  0  0
 19 37  1  0  0  0  0
 20 21  1  0  0  0  0
 20 38  1  0  0  0  0
 21 22  2  0  0  0  0
 21 39  1  0  0  0  0
 22 40  1  0  0  0  0
M  END
>  <Mol_ID>
6444

>  <Formula>
C16H16ClN3O2S2

>  <MolWeight>
381.90014

>  <Cat>
E2374

>  <Name>
PI-273

>  <Target>
Apoptosis related,PI4K

>  <Form>
free base

>  <CAS>
925069-34-7

>  <URL>
http://www.selleckchem.com/products/pi-273.html

$$$$
