PI3K/mTOR Inhibitor-2
 OpenBabel08302521353D

 45 48  0  0  0  0  0  0  0  0999 V2000
    0.8496   -0.0404    0.0564 N   0  0  0  0  0  0  0  0  0  0  0  0
    0.1816   -0.8750   -1.2460 S   0  0  0  0  0  0  0  0  0  0  0  0
    1.0319   -2.0194   -1.4997 O   0  0  0  0  0  0  0  0  0  0  0  0
   -1.2396   -1.0260   -1.0280 O   0  0  0  0  0  0  0  0  0  0  0  0
   -1.0599    7.1486   -2.6921 O   0  0  0  0  0  0  0  0  0  0  0  0
   -1.0385   -0.1636    2.1649 O   0  0  0  0  0  0  0  0  0  0  0  0
   -2.1943   -0.2037    3.0022 C   0  0  0  0  0  0  0  0  0  0  0  0
    2.7108    0.3851   -2.1619 F   0  0  0  0  0  0  0  0  0  0  0  0
    0.9738    2.5645   -5.9550 F   0  0  0  0  0  0  0  0  0  0  0  0
    0.4908    4.8716    0.3930 C   0  0  0  0  0  0  0  0  0  0  0  0
   -0.0195    5.5881   -0.6248 C   0  0  0  0  0  0  0  0  0  0  0  0
    1.4591    5.4978    1.2709 C   0  0  0  0  0  0  0  0  0  0  0  0
    0.3431    6.9162   -0.8461 N   0  0  0  0  0  0  0  0  0  0  0  0
    1.8247    6.7724    1.1015 C   0  0  0  0  0  0  0  0  0  0  0  0
    1.2458    7.5655   -0.0112 C   0  0  0  0  0  0  0  0  0  0  0  0
   -0.2401    7.6100   -1.8969 C   0  0  0  0  0  0  0  0  0  0  0  0
    1.6076    8.8063   -0.1396 N   0  0  0  0  0  0  0  0  0  0  0  0
    0.1737    9.0153   -2.0406 C   0  0  0  0  0  0  0  0  0  0  0  0
    1.0513    9.5105   -1.1690 C   0  0  0  0  0  0  0  0  0  0  0  0
   -0.0092    3.5192    0.6590 C   0  0  0  0  0  0  0  0  0  0  0  0
    0.5872    2.3797    0.1158 C   0  0  0  0  0  0  0  0  0  0  0  0
   -1.0196    3.3457    1.5986 C   0  0  0  0  0  0  0  0  0  0  0  0
    0.1923    1.1198    0.5678 C   0  0  0  0  0  0  0  0  0  0  0  0
   -1.4287    2.1448    2.0519 N   0  0  0  0  0  0  0  0  0  0  0  0
   -0.8086    1.0510    1.5518 C   0  0  0  0  0  0  0  0  0  0  0  0
    0.3877    0.2074   -2.6291 C   0  0  0  0  0  0  0  0  0  0  0  0
    1.6635    0.6734   -2.9458 C   0  0  0  0  0  0  0  0  0  0  0  0
   -0.7013    0.5337   -3.4482 C   0  0  0  0  0  0  0  0  0  0  0  0
    1.8689    1.4780   -4.0630 C   0  0  0  0  0  0  0  0  0  0  0  0
   -0.4953    1.3386   -4.5725 C   0  0  0  0  0  0  0  0  0  0  0  0
    0.7826    1.8007   -4.8690 C   0  0  0  0  0  0  0  0  0  0  0  0
    1.8659   -0.0822    0.0861 H   0  0  0  0  0  0  0  0  0  0  0  0
   -2.4764    0.7463    3.4674 H   0  0  0  0  0  0  0  0  0  0  0  0
   -3.0364   -0.5898    2.4204 H   0  0  0  0  0  0  0  0  0  0  0  0
   -1.9953   -0.8994    3.8220 H   0  0  0  0  0  0  0  0  0  0  0  0
   -0.7630    5.1746   -1.3028 H   0  0  0  0  0  0  0  0  0  0  0  0
    1.8710    4.9141    2.0893 H   0  0  0  0  0  0  0  0  0  0  0  0
    2.5297    7.2693    1.7577 H   0  0  0  0  0  0  0  0  0  0  0  0
   -0.2553    9.5946   -2.8458 H   0  0  0  0  0  0  0  0  0  0  0  0
    1.3684   10.5458   -1.2491 H   0  0  0  0  0  0  0  0  0  0  0  0
    1.3896    2.4807   -0.6081 H   0  0  0  0  0  0  0  0  0  0  0  0
   -1.5122    4.1973    2.0626 H   0  0  0  0  0  0  0  0  0  0  0  0
   -1.6968    0.1545   -3.2310 H   0  0  0  0  0  0  0  0  0  0  0  0
    2.8601    1.8392   -4.3097 H   0  0  0  0  0  0  0  0  0  0  0  0
   -1.3244    1.5973   -5.2285 H   0  0  0  0  0  0  0  0  0  0  0  0
  1  2  1  0  0  0  0
  1 23  1  0  0  0  0
  1 32  1  0  0  0  0
  2  3  2  0  0  0  0
  2  4  2  0  0  0  0
  2 26  1  0  0  0  0
  5 16  2  0  0  0  0
  6  7  1  0  0  0  0
  6 25  1  0  0  0  0
  7 33  1  0  0  0  0
  7 34  1  0  0  0  0
  7 35  1  0  0  0  0
  8 27  1  0  0  0  0
  9 31  1  0  0  0  0
 10 11  2  0  0  0  0
 10 12  1  0  0  0  0
 10 20  1  0  0  0  0
 11 13  1  0  0  0  0
 11 36  1  0  0  0  0
 12 14  2  0  0  0  0
 12 37  1  0  0  0  0
 13 15  1  0  0  0  0
 13 16  1  0  0  0  0
 14 15  1  0  0  0  0
 14 38  1  0  0  0  0
 15 17  2  0  0  0  0
 16 18  1  0  0  0  0
 17 19  1  0  0  0  0
 18 19  2  0  0  0  0
 18 39  1  0  0  0  0
 19 40  1  0  0  0  0
 20 21  2  0  0  0  0
 20 22  1  0  0  0  0
 21 23  1  0  0  0  0
 21 41  1  0  0  0  0
 22 24  2  0  0  0  0
 22 42  1  0  0  0  0
 23 25  2  0  0  0  0
 24 25  1  0  0  0  0
 26 27  2  0  0  0  0
 26 28  1  0  0  0  0
 27 29  1  0  0  0  0
 28 30  2  0  0  0  0
 28 43  1  0  0  0  0
 29 31  2  0  0  0  0
 29 44  1  0  0  0  0
 30 31  1  0  0  0  0
 30 45  1  0  0  0  0
M  END
>  <Mol_ID>
6918

>  <Formula>
C20H13ClF2N4O4S

>  <MolWeight>
478.8564264

>  <Cat>
E2375

>  <Name>
PI3K/mTOR Inhibitor-2

>  <Target>
mTOR,PI3K

>  <Form>
Free base

>  <CAS>
1848242-58-9

>  <URL>
https://www.selleckchem.com/products/pi3k-mtor-inhibitor-2.html

$$$$
