Picolinic acid (PCL 016)
 OpenBabel08302520393D

 14 14  0  0  0  0  0  0  0  0999 V2000
   -0.7041    1.1693    0.0016 C   0  0  0  0  0  0  0  0  0  0  0  0
    0.6835    1.2662   -0.0005 C   0  0  0  0  0  0  0  0  0  0  0  0
    1.4282    0.0865    0.0020 C   0  0  0  0  0  0  0  0  0  0  0  0
    0.7665   -1.1368    0.0030 C   0  0  0  0  0  0  0  0  0  0  0  0
   -0.6187   -1.1371    0.0078 C   0  0  0  0  0  0  0  0  0  0  0  0
   -1.3678   -0.0181    0.0069 N   0  0  0  0  0  0  0  0  0  0  0  0
   -1.5278    2.4162   -0.0044 C   0  0  0  0  0  0  0  0  0  0  0  0
   -1.0988    3.5576   -0.0159 O   0  0  0  0  0  0  0  0  0  0  0  0
   -2.8545    2.1705    0.0030 O   0  0  0  0  0  0  0  0  0  0  0  0
    1.1780    2.2333   -0.0027 H   0  0  0  0  0  0  0  0  0  0  0  0
    2.5145    0.1219   -0.0010 H   0  0  0  0  0  0  0  0  0  0  0  0
    1.3164   -2.0707    0.0047 H   0  0  0  0  0  0  0  0  0  0  0  0
   -1.1803   -2.0679    0.0116 H   0  0  0  0  0  0  0  0  0  0  0  0
   -3.2798    3.0502   -0.0041 H   0  0  0  0  0  0  0  0  0  0  0  0
  1  2  2  0  0  0  0
  1  6  1  0  0  0  0
  1  7  1  0  0  0  0
  2  3  1  0  0  0  0
  2 10  1  0  0  0  0
  3  4  2  0  0  0  0
  3 11  1  0  0  0  0
  4  5  1  0  0  0  0
  4 12  1  0  0  0  0
  5  6  2  0  0  0  0
  5 13  1  0  0  0  0
  7  8  2  0  0  0  0
  7  9  1  0  0  0  0
  9 14  1  0  0  0  0
M  END
>  <Mol_ID>
3607

>  <Formula>
C6H5NO2

>  <MolWeight>
123.1094

>  <Cat>
S6249

>  <Name>
Picolinic acid (PCL 016)

>  <Synonyms>
N/A

>  <Target>
Immunology & Inflammation related

>  <Form>
free base

>  <CAS>
98-98-6

>  <URL>
http://www.selleck.cn/products/picolinic-acid-pcl-016.html

$$$$
