Pifithrin-¦Ì.cdx
 OpenBabel08302522053D

 19 19  0  0  0  0  0  0  0  0999 V2000
   -0.6582    1.1702    0.0099 C   0  0  0  0  0  0  0  0  0  0  0  0
   -1.2898   -0.0733    0.0217 C   0  0  0  0  0  0  0  0  0  0  0  0
   -0.5294   -1.2424    0.0056 C   0  0  0  0  0  0  0  0  0  0  0  0
    0.8646   -1.1688   -0.0368 C   0  0  0  0  0  0  0  0  0  0  0  0
    1.4982    0.0754   -0.0714 C   0  0  0  0  0  0  0  0  0  0  0  0
    0.7358    1.2455   -0.0352 C   0  0  0  0  0  0  0  0  0  0  0  0
    2.9217    0.1519   -0.1842 C   0  0  0  0  0  0  0  0  0  0  0  0
    4.1131    0.2219   -0.3190 C   0  0  0  0  0  0  0  0  0  0  0  0
    5.8691    0.3187   -0.5262 S   0  0  0  0  0  0  0  0  0  0  0  0
    6.5336   -1.2035   -0.3600 N   0  0  0  0  0  0  0  0  0  0  0  0
    5.9437    0.7622   -1.8898 O   0  0  0  0  0  0  0  0  0  0  0  0
    6.2005    1.1037    0.6343 O   0  0  0  0  0  0  0  0  0  0  0  0
   -1.2507    2.0814    0.0253 H   0  0  0  0  0  0  0  0  0  0  0  0
   -2.3753   -0.1309    0.0398 H   0  0  0  0  0  0  0  0  0  0  0  0
   -1.0223   -2.2111    0.0156 H   0  0  0  0  0  0  0  0  0  0  0  0
    1.4474   -2.0864   -0.0567 H   0  0  0  0  0  0  0  0  0  0  0  0
    1.2184    2.2198   -0.0551 H   0  0  0  0  0  0  0  0  0  0  0  0
    7.5002   -1.1969   -0.6880 H   0  0  0  0  0  0  0  0  0  0  0  0
    6.4680   -1.5178    0.6080 H   0  0  0  0  0  0  0  0  0  0  0  0
  1  2  2  0  0  0  0
  1 13  1  0  0  0  0
  2  3  1  0  0  0  0
  2 14  1  0  0  0  0
  3  4  2  0  0  0  0
  3 15  1  0  0  0  0
  4  5  1  0  0  0  0
  4 16  1  0  0  0  0
  5  6  2  0  0  0  0
  5  7  1  0  0  0  0
  6  1  1  0  0  0  0
  6 17  1  0  0  0  0
  7  8  3  0  0  0  0
  8  9  1  0  0  0  0
  9 10  1  0  0  0  0
  9 11  2  0  0  0  0
  9 12  2  0  0  0  0
 10 18  1  0  0  0  0
 10 19  1  0  0  0  0
M  END
>  <Mol_ID>
1379

>  <Formula>
C8H7NO2S

>  <MolWeight>
181.21168

>  <Cat>
S2930

>  <Name>
Pifithrin-¦Ì

>  <Synonyms>
NSC 303580, PFT¦Ì, 2-Phenylethynesulfonamide

>  <Target>
Autophagy,HSP (HSP90),p53

>  <Form>
free base

>  <CAS>
64984-31-2

>  <URL>
http://selleckchem.com/products/pifithrin-u.html

$$$$
