PIK-93
 OpenBabel08302520013D

 40 41  0  0  0  0  0  0  0  0999 V2000
    1.3347   -0.1834   -0.1288 C   0  0  0  0  0  0  0  0  0  0  0  0
    0.4478   -1.2590   -0.1664 C   0  0  0  0  0  0  0  0  0  0  0  0
   -0.9359   -1.0422   -0.1964 C   0  0  0  0  0  0  0  0  0  0  0  0
   -1.4599    0.2579   -0.1050 C   0  0  0  0  0  0  0  0  0  0  0  0
   -0.5511    1.3257   -0.0213 C   0  0  0  0  0  0  0  0  0  0  0  0
    0.8311    1.1115   -0.0641 C   0  0  0  0  0  0  0  0  0  0  0  0
   -2.9144    0.5028   -0.1233 C   0  0  0  0  0  0  0  0  0  0  0  0
    1.0776   -2.9114   -0.2375 S   0  0  0  0  0  0  0  0  0  0  0  0
    0.4845   -3.5614   -1.3828 O   0  0  0  0  0  0  0  0  0  0  0  0
    2.5117   -2.8534   -0.0675 O   0  0  0  0  0  0  0  0  0  0  0  0
   -3.9965   -0.5755    0.7043 S   0  0  0  0  0  0  0  0  0  0  0  0
   -5.3249    0.3294    0.1493 C   0  0  0  0  0  0  0  0  0  0  0  0
   -5.0420    1.3956   -0.5406 N   0  0  0  0  0  0  0  0  0  0  0  0
   -3.6720    1.5210   -0.7001 C   0  0  0  0  0  0  0  0  0  0  0  0
   -3.2287    2.7100   -1.4764 C   0  0  0  0  0  0  0  0  0  0  0  0
   -6.5540   -0.1584    0.5006 N   0  0  0  0  0  0  0  0  0  0  0  0
   -7.7131    0.3778   -0.0163 C   0  0  0  0  0  0  0  0  0  0  0  0
   -8.9619   -0.2506    0.5483 C   0  0  0  0  0  0  0  0  0  0  0  0
   -7.8094    1.2587   -0.8646 O   0  0  0  0  0  0  0  0  0  0  0  0
    0.5134   -3.6322    1.1632 N   0  0  0  0  0  0  0  0  0  0  0  0
   -0.7979   -4.2937    1.2580 C   0  0  0  0  0  0  0  0  0  0  0  0
   -0.8908   -5.5699    0.4205 C   0  0  0  0  0  0  0  0  0  0  0  0
    0.1716   -6.4597    0.7504 O   0  0  0  0  0  0  0  0  0  0  0  0
    2.4119   -0.3411   -0.1612 H   0  0  0  0  0  0  0  0  0  0  0  0
   -1.6018   -1.8901   -0.3170 H   0  0  0  0  0  0  0  0  0  0  0  0
   -0.9052    2.3496    0.0722 H   0  0  0  0  0  0  0  0  0  0  0  0
    1.5117    1.9603   -0.0459 H   0  0  0  0  0  0  0  0  0  0  0  0
   -3.8223    2.8023   -2.3914 H   0  0  0  0  0  0  0  0  0  0  0  0
   -3.3834    3.6147   -0.8786 H   0  0  0  0  0  0  0  0  0  0  0  0
   -2.1801    2.6640   -1.7728 H   0  0  0  0  0  0  0  0  0  0  0  0
   -6.5723   -0.9656    1.1033 H   0  0  0  0  0  0  0  0  0  0  0  0
   -9.5909    0.5378    0.9722 H   0  0  0  0  0  0  0  0  0  0  0  0
   -9.5011   -0.7554   -0.2582 H   0  0  0  0  0  0  0  0  0  0  0  0
   -8.7418   -0.9779    1.3337 H   0  0  0  0  0  0  0  0  0  0  0  0
    1.2563   -3.9829    1.7703 H   0  0  0  0  0  0  0  0  0  0  0  0
   -0.9274   -4.5663    2.3130 H   0  0  0  0  0  0  0  0  0  0  0  0
   -1.6072   -3.6063    1.0100 H   0  0  0  0  0  0  0  0  0  0  0  0
   -1.8361   -6.0791    0.6343 H   0  0  0  0  0  0  0  0  0  0  0  0
   -0.8717   -5.3789   -0.6548 H   0  0  0  0  0  0  0  0  0  0  0  0
    0.9687   -6.1014    0.3192 H   0  0  0  0  0  0  0  0  0  0  0  0
  1  2  2  0  0  0  0
  1 24  1  0  0  0  0
  2  3  1  0  0  0  0
  2  8  1  0  0  0  0
  3  4  2  0  0  0  0
  3 25  1  0  0  0  0
  4  5  1  0  0  0  0
  4  7  1  0  0  0  0
  5  6  2  0  0  0  0
  5 26  1  0  0  0  0
  6  1  1  0  0  0  0
  6 27  1  0  0  0  0
  7 11  1  0  0  0  0
  8  9  2  0  0  0  0
  8 10  2  0  0  0  0
  8 20  1  0  0  0  0
 11 12  1  0  0  0  0
 12 13  2  0  0  0  0
 12 16  1  0  0  0  0
 13 14  1  0  0  0  0
 14  7  2  0  0  0  0
 14 15  1  0  0  0  0
 15 28  1  0  0  0  0
 15 29  1  0  0  0  0
 15 30  1  0  0  0  0
 16 17  1  0  0  0  0
 16 31  1  0  0  0  0
 17 18  1  0  0  0  0
 17 19  2  0  0  0  0
 18 32  1  0  0  0  0
 18 33  1  0  0  0  0
 18 34  1  0  0  0  0
 20 21  1  0  0  0  0
 20 35  1  0  0  0  0
 21 22  1  0  0  0  0
 21 36  1  0  0  0  0
 21 37  1  0  0  0  0
 22 23  1  0  0  0  0
 22 38  1  0  0  0  0
 22 39  1  0  0  0  0
 23 40  1  0  0  0  0
M  END
>  <Mol_ID>
289

>  <Formula>
C14H16ClN3O4S2

>  <MolWeight>
389.87754

>  <Cat>
S1489

>  <Name>
PIK-93

>  <Synonyms>
N/A

>  <Target>
PI4K

>  <Form>
free base

>  <CAS>
593960-11-3

>  <URL>
http://selleckchem.com/products/PIK-93.html

$$$$
