PIK-III.cdx
 OpenBabel08302520003D

 41 44  0  0  0  0  0  0  0  0999 V2000
    1.0976   -0.8308    0.5071 C   0  0  0  0  0  0  0  0  0  0  0  0
    1.3082    0.4005    0.0325 N   0  0  0  0  0  0  0  0  0  0  0  0
    0.2520    1.0714   -0.4513 C   0  0  0  0  0  0  0  0  0  0  0  0
   -0.9904    0.5682   -0.4736 N   0  0  0  0  0  0  0  0  0  0  0  0
   -1.1871   -0.6754    0.0132 C   0  0  0  0  0  0  0  0  0  0  0  0
   -0.1378   -1.4206    0.5252 C   0  0  0  0  0  0  0  0  0  0  0  0
   -2.5587   -1.2136   -0.0449 C   0  0  0  0  0  0  0  0  0  0  0  0
    0.4394    2.3371   -0.9993 N   0  0  0  0  0  0  0  0  0  0  0  0
    1.4385    3.2728   -0.6885 C   0  0  0  0  0  0  0  0  0  0  0  0
    1.8407    4.2085   -1.6401 C   0  0  0  0  0  0  0  0  0  0  0  0
    2.8876    5.0646   -1.3309 C   0  0  0  0  0  0  0  0  0  0  0  0
    3.5395    5.0647   -0.1478 N   0  0  0  0  0  0  0  0  0  0  0  0
    3.1341    4.1552    0.7601 C   0  0  0  0  0  0  0  0  0  0  0  0
    2.1112    3.2530    0.5352 C   0  0  0  0  0  0  0  0  0  0  0  0
   -3.0299   -2.0653    0.9487 C   0  0  0  0  0  0  0  0  0  0  0  0
   -4.2119   -2.7157    0.9339 N   0  0  0  0  0  0  0  0  0  0  0  0
   -4.9783   -2.5007   -0.1298 C   0  0  0  0  0  0  0  0  0  0  0  0
   -4.6904   -1.6396   -1.1029 N   0  0  0  0  0  0  0  0  0  0  0  0
   -3.4881   -0.9970   -1.0633 C   0  0  0  0  0  0  0  0  0  0  0  0
   -3.2380   -0.1029   -2.2564 C   0  0  0  0  0  0  0  0  0  0  0  0
   -2.4704   -0.8250   -3.3299 C   0  0  0  0  0  0  0  0  0  0  0  0
   -6.1552   -3.2086   -0.2249 N   0  0  0  0  0  0  0  0  0  0  0  0
   -2.1358   -0.1036   -4.6112 C   0  0  0  0  0  0  0  0  0  0  0  0
   -3.1499   -1.2116   -4.6205 C   0  0  0  0  0  0  0  0  0  0  0  0
    1.9805   -1.3445    0.8739 H   0  0  0  0  0  0  0  0  0  0  0  0
   -0.2525   -2.4271    0.9042 H   0  0  0  0  0  0  0  0  0  0  0  0
   -0.4094    2.6976   -1.4063 H   0  0  0  0  0  0  0  0  0  0  0  0
    1.3810    4.2502   -2.6205 H   0  0  0  0  0  0  0  0  0  0  0  0
    3.2543    5.7861   -2.0546 H   0  0  0  0  0  0  0  0  0  0  0  0
    3.6692    4.1621    1.7038 H   0  0  0  0  0  0  0  0  0  0  0  0
    1.8412    2.5518    1.3186 H   0  0  0  0  0  0  0  0  0  0  0  0
   -2.4392   -2.2818    1.8370 H   0  0  0  0  0  0  0  0  0  0  0  0
   -4.2088    0.2294   -2.6482 H   0  0  0  0  0  0  0  0  0  0  0  0
   -2.7344    0.8239   -1.9734 H   0  0  0  0  0  0  0  0  0  0  0  0
   -1.7042   -1.4856   -2.9395 H   0  0  0  0  0  0  0  0  0  0  0  0
   -6.4552   -3.5171    0.6878 H   0  0  0  0  0  0  0  0  0  0  0  0
   -6.8164   -2.7089   -0.8001 H   0  0  0  0  0  0  0  0  0  0  0  0
   -2.4904    0.9121   -4.7428 H   0  0  0  0  0  0  0  0  0  0  0  0
   -1.1675   -0.2969   -5.0592 H   0  0  0  0  0  0  0  0  0  0  0  0
   -2.8733   -2.1556   -5.0763 H   0  0  0  0  0  0  0  0  0  0  0  0
   -4.1921   -0.9462   -4.7604 H   0  0  0  0  0  0  0  0  0  0  0  0
  1  2  2  0  0  0  0
  1 25  1  0  0  0  0
  2  3  1  0  0  0  0
  3  4  2  0  0  0  0
  3  8  1  0  0  0  0
  4  5  1  0  0  0  0
  5  6  2  0  0  0  0
  5  7  1  0  0  0  0
  6  1  1  0  0  0  0
  6 26  1  0  0  0  0
  7 15  2  0  0  0  0
  8  9  1  0  0  0  0
  8 27  1  0  0  0  0
  9 10  2  0  0  0  0
 10 11  1  0  0  0  0
 10 28  1  0  0  0  0
 11 12  2  0  0  0  0
 11 29  1  0  0  0  0
 12 13  1  0  0  0  0
 13 14  2  0  0  0  0
 13 30  1  0  0  0  0
 14  9  1  0  0  0  0
 14 31  1  0  0  0  0
 15 16  1  0  0  0  0
 15 32  1  0  0  0  0
 16 17  2  0  0  0  0
 17 18  1  0  0  0  0
 17 22  1  0  0  0  0
 18 19  2  0  0  0  0
 19  7  1  0  0  0  0
 19 20  1  0  0  0  0
 20 21  1  0  0  0  0
 20 33  1  0  0  0  0
 20 34  1  0  0  0  0
 21 23  1  0  0  0  0
 21 35  1  0  0  0  0
 22 36  1  0  0  0  0
 22 37  1  0  0  0  0
 23 24  1  0  0  0  0
 23 38  1  0  0  0  0
 23 39  1  0  0  0  0
 24 21  1  0  0  0  0
 24 40  1  0  0  0  0
 24 41  1  0  0  0  0
M  END
>  <Mol_ID>
2664

>  <Formula>
C17H17N7

>  <MolWeight>
319.36378

>  <Cat>
S7683

>  <Name>
PIK-III

>  <Synonyms>
VPS34-IN2

>  <Target>
Autophagy,LC3,PI3K

>  <Form>
free base

>  <CAS>
1383716-40-2

>  <URL>
http://selleckchem.com/products/pik-iii.html

$$$$
