Pilocarpine HCl.cdx
 OpenBabel08302522053D

 31 32  0  0  0  0  0  0  0  0999 V2000
    1.6571    0.7613    0.1859 C   0  0  1  0  0  0  0  0  0  0  0  0
    0.3001    1.4236   -0.0823 C   0  0  1  0  0  0  0  0  0  0  0  0
    1.9873    0.4500    1.6613 C   0  0  0  0  0  0  0  0  0  0  0  0
    1.4832   -0.5212   -0.6186 C   0  0  0  0  0  0  0  0  0  0  0  0
   -0.6147    0.2239   -0.1581 C   0  0  0  0  0  0  0  0  0  0  0  0
   -0.2414    2.4853    0.8753 C   0  0  0  0  0  0  0  0  0  0  0  0
    3.3318   -0.2040    1.8212 C   0  0  0  0  0  0  0  0  0  0  0  0
    0.1133   -0.8919   -0.4495 O   0  0  0  0  0  0  0  0  0  0  0  0
   -1.8291    0.2272   -0.0153 O   0  0  0  0  0  0  0  0  0  0  0  0
    0.6258    3.7297    0.9851 C   0  0  0  0  0  0  0  0  0  0  0  0
    3.5668   -1.4274    2.4088 N   0  0  0  0  0  0  0  0  0  0  0  0
    4.5921    0.2318    1.4548 C   0  0  0  0  0  0  0  0  0  0  0  0
    4.9204   -1.6311    2.4307 C   0  0  0  0  0  0  0  0  0  0  0  0
    2.6005   -2.3795    2.9009 C   0  0  0  0  0  0  0  0  0  0  0  0
    5.5626   -0.6558    1.8364 N   0  0  0  0  0  0  0  0  0  0  0  0
    2.4668    1.3680   -0.2372 H   0  0  0  0  0  0  0  0  0  0  0  0
    0.3192    1.8522   -1.0933 H   0  0  0  0  0  0  0  0  0  0  0  0
    2.0164    1.3831    2.2355 H   0  0  0  0  0  0  0  0  0  0  0  0
    1.1980   -0.1604    2.1131 H   0  0  0  0  0  0  0  0  0  0  0  0
    1.6641   -0.3589   -1.6871 H   0  0  0  0  0  0  0  0  0  0  0  0
    2.1159   -1.3477   -0.2885 H   0  0  0  0  0  0  0  0  0  0  0  0
   -1.2238    2.8040    0.4988 H   0  0  0  0  0  0  0  0  0  0  0  0
   -0.4311    2.0694    1.8712 H   0  0  0  0  0  0  0  0  0  0  0  0
    1.0026    4.0462    0.0078 H   0  0  0  0  0  0  0  0  0  0  0  0
    0.0384    4.5553    1.4001 H   0  0  0  0  0  0  0  0  0  0  0  0
    1.4767    3.5639    1.6503 H   0  0  0  0  0  0  0  0  0  0  0  0
    4.8568    1.1458    0.9361 H   0  0  0  0  0  0  0  0  0  0  0  0
    5.3791   -2.5023    2.8815 H   0  0  0  0  0  0  0  0  0  0  0  0
    2.3030   -2.0795    3.9073 H   0  0  0  0  0  0  0  0  0  0  0  0
    1.7423   -2.4004    2.2265 H   0  0  0  0  0  0  0  0  0  0  0  0
    3.0566   -3.3742    2.9231 H   0  0  0  0  0  0  0  0  0  0  0  0
  1  2  1  0  0  0  0
  1  4  1  0  0  0  0
  1 16  1  6  0  0  0
  1  3  1  0  0  0  0
  2  5  1  0  0  0  0
  2 17  1  6  0  0  0
  2  6  1  0  0  0  0
  3  7  1  0  0  0  0
  3 18  1  0  0  0  0
  3 19  1  0  0  0  0
  4  8  1  0  0  0  0
  4 20  1  0  0  0  0
  4 21  1  0  0  0  0
  5  9  2  0  0  0  0
  5  8  1  0  0  0  0
  6 10  1  0  0  0  0
  6 22  1  0  0  0  0
  6 23  1  0  0  0  0
  7 11  1  0  0  0  0
  7 12  2  0  0  0  0
 10 24  1  0  0  0  0
 10 25  1  0  0  0  0
 10 26  1  0  0  0  0
 11 13  1  0  0  0  0
 11 14  1  0  0  0  0
 12 15  1  0  0  0  0
 12 27  1  0  0  0  0
 13 15  2  0  0  0  0
 13 28  1  0  0  0  0
 14 29  1  0  0  0  0
 14 30  1  0  0  0  0
 14 31  1  0  0  0  0
M  END
>  <Mol_ID>
1360

>  <Formula>
C11H17ClN2O2

>  <MolWeight>
244.71788

>  <Cat>
S4231

>  <Name>
Pilocarpine HCl

>  <Synonyms>
NSC 5746 HCl

>  <Target>
AChR

>  <Form>
Hydrochloride

>  <CAS>
54-71-7

>  <URL>
http://selleckchem.com/products/pilocarpine-hcl.html

$$$$
