Pimonidazole
 OpenBabel08302521313D

 36 37  0  0  0  0  0  0  0  0999 V2000
   -1.0497   -1.0311    0.8941 O   0  0  0  0  0  0  0  0  0  0  0  0
   -1.4594    1.0644   -1.1101 O   0  5  0  0  0  0  0  0  0  0  0  0
   -2.4722    2.9279   -0.5382 O   0  0  0  0  0  0  0  0  0  0  0  0
    2.4760   -2.3719    0.4571 N   0  0  0  0  0  0  0  0  0  0  0  0
    0.5069    1.5206    0.8738 N   0  0  0  0  0  0  0  0  0  0  0  0
   -0.5898    3.4043    1.3664 N   0  0  0  0  0  0  0  0  0  0  0  0
   -1.5686    2.0849   -0.4174 N   0  3  0  0  0  0  0  0  0  0  0  0
    3.0492   -2.2164    1.8062 C   0  0  0  0  0  0  0  0  0  0  0  0
    2.9231   -3.6515   -0.1368 C   0  0  0  0  0  0  0  0  0  0  0  0
    4.5788   -2.2593    1.7814 C   0  0  0  0  0  0  0  0  0  0  0  0
    4.4500   -3.7409   -0.2205 C   0  0  0  0  0  0  0  0  0  0  0  0
    5.0926   -3.5438    1.1462 C   0  0  0  0  0  0  0  0  0  0  0  0
    0.9973   -2.3052    0.4781 C   0  0  0  0  0  0  0  0  0  0  0  0
    0.3799   -0.9728    0.9871 C   0  0  3  0  0  0  0  0  0  0  0  0
    0.9408    0.2644    0.2655 C   0  0  0  0  0  0  0  0  0  0  0  0
   -0.5702    2.3270    0.5944 C   0  0  0  0  0  0  0  0  0  0  0  0
    1.2091    2.1466    1.8829 C   0  0  0  0  0  0  0  0  0  0  0  0
    0.5098    3.2922    2.1735 C   0  0  0  0  0  0  0  0  0  0  0  0
   -1.3158   -1.0794   -0.0440 H   0  0  0  0  0  0  0  0  0  0  0  0
    2.6669   -2.9912    2.4830 H   0  0  0  0  0  0  0  0  0  0  0  0
    2.7660   -1.2459    2.2263 H   0  0  0  0  0  0  0  0  0  0  0  0
    2.5273   -3.7495   -1.1546 H   0  0  0  0  0  0  0  0  0  0  0  0
    2.5437   -4.5021    0.4455 H   0  0  0  0  0  0  0  0  0  0  0  0
    4.9672   -2.1704    2.8021 H   0  0  0  0  0  0  0  0  0  0  0  0
    4.9595   -1.3975    1.2185 H   0  0  0  0  0  0  0  0  0  0  0  0
    4.8267   -2.9790   -0.9145 H   0  0  0  0  0  0  0  0  0  0  0  0
    4.7455   -4.7156   -0.6273 H   0  0  0  0  0  0  0  0  0  0  0  0
    6.1831   -3.5073    1.0501 H   0  0  0  0  0  0  0  0  0  0  0  0
    4.8546   -4.3973    1.7928 H   0  0  0  0  0  0  0  0  0  0  0  0
    0.5903   -3.1242    1.0884 H   0  0  0  0  0  0  0  0  0  0  0  0
    0.6136   -2.4869   -0.5375 H   0  0  0  0  0  0  0  0  0  0  0  0
    0.5884   -0.8875    2.0602 H   0  0  0  0  0  0  0  0  0  0  0  0
    2.0359    0.2735    0.3350 H   0  0  0  0  0  0  0  0  0  0  0  0
    0.7030    0.2882   -0.7965 H   0  0  0  0  0  0  0  0  0  0  0  0
    2.1215    1.7378    2.2971 H   0  0  0  0  0  0  0  0  0  0  0  0
    0.7503    4.0485    2.9119 H   0  0  0  0  0  0  0  0  0  0  0  0
  1 14  1  0  0  0  0
  1 19  1  0  0  0  0
  2  7  1  0  0  0  0
  3  7  2  0  0  0  0
  4  8  1  0  0  0  0
  4  9  1  0  0  0  0
  4 13  1  0  0  0  0
  5 15  1  0  0  0  0
  5 16  1  0  0  0  0
  5 17  1  0  0  0  0
  6 16  2  0  0  0  0
  6 18  1  0  0  0  0
  7 16  1  0  0  0  0
  8 10  1  0  0  0  0
  8 20  1  0  0  0  0
  8 21  1  0  0  0  0
  9 11  1  0  0  0  0
  9 22  1  0  0  0  0
  9 23  1  0  0  0  0
 10 12  1  0  0  0  0
 10 24  1  0  0  0  0
 10 25  1  0  0  0  0
 11 12  1  0  0  0  0
 11 26  1  0  0  0  0
 11 27  1  0  0  0  0
 12 28  1  0  0  0  0
 12 29  1  0  0  0  0
 13 14  1  0  0  0  0
 13 30  1  0  0  0  0
 13 31  1  0  0  0  0
 14 15  1  0  0  0  0
 14 32  1  0  0  0  0
 15 33  1  0  0  0  0
 15 34  1  0  0  0  0
 17 18  2  0  0  0  0
 17 35  1  0  0  0  0
 18 36  1  0  0  0  0
M  CHG  2   2  -1   7   1
M  END
>  <Mol_ID>
5946

>  <Formula>
C11H18N4O3

>  <MolWeight>
254.28562

>  <Cat>
S9919

>  <Name>
Pimonidazole

>  <Synonyms>
Ro 03-8799

>  <Target>
Others

>  <Form>
Free Base

>  <CAS>
70132-50-2

>  <URL>
http://www.selleckchem.com/products/pimonidazole.html

$$$$
