Pinosylvin
 OpenBabel08302521463D

 28 29  0  0  0  0  0  0  0  0999 V2000
    1.0503   -0.0766    0.0206 C   0  0  0  0  0  0  0  0  0  0  0  0
    0.4597    0.7190    0.9280 C   0  0  0  0  0  0  0  0  0  0  0  0
    0.8997   -2.0562   -4.4314 O   0  0  0  0  0  0  0  0  0  0  0  0
   -2.8523   -2.5915   -1.6288 O   0  0  0  0  0  0  0  0  0  0  0  0
    0.3270   -0.8532   -1.0001 C   0  0  0  0  0  0  0  0  0  0  0  0
    0.9644   -1.0963   -2.2278 C   0  0  0  0  0  0  0  0  0  0  0  0
   -0.9564   -1.3763   -0.7869 C   0  0  0  0  0  0  0  0  0  0  0  0
    0.3094   -1.8172   -3.2251 C   0  0  0  0  0  0  0  0  0  0  0  0
   -1.5946   -2.0903   -1.8006 C   0  0  0  0  0  0  0  0  0  0  0  0
   -0.9713   -2.3118   -3.0214 C   0  0  0  0  0  0  0  0  0  0  0  0
    1.1878    1.5692    1.8829 C   0  0  0  0  0  0  0  0  0  0  0  0
    2.4198    2.1568    1.5674 C   0  0  0  0  0  0  0  0  0  0  0  0
    0.5913    1.8802    3.1127 C   0  0  0  0  0  0  0  0  0  0  0  0
    3.0510    3.0193    2.4676 C   0  0  0  0  0  0  0  0  0  0  0  0
    1.2218    2.7445    4.0124 C   0  0  0  0  0  0  0  0  0  0  0  0
    2.4517    3.3131    3.6898 C   0  0  0  0  0  0  0  0  0  0  0  0
    2.1338   -0.1482   -0.0261 H   0  0  0  0  0  0  0  0  0  0  0  0
   -0.6229    0.7988    0.9793 H   0  0  0  0  0  0  0  0  0  0  0  0
    1.7859   -1.6566   -4.4322 H   0  0  0  0  0  0  0  0  0  0  0  0
   -3.1701   -2.3438   -0.7455 H   0  0  0  0  0  0  0  0  0  0  0  0
    1.9625   -0.7063   -2.4047 H   0  0  0  0  0  0  0  0  0  0  0  0
   -1.4534   -1.2302    0.1665 H   0  0  0  0  0  0  0  0  0  0  0  0
   -1.4781   -2.8651   -3.8056 H   0  0  0  0  0  0  0  0  0  0  0  0
    2.8966    1.9719    0.6086 H   0  0  0  0  0  0  0  0  0  0  0  0
   -0.3720    1.4540    3.3826 H   0  0  0  0  0  0  0  0  0  0  0  0
    4.0060    3.4696    2.2066 H   0  0  0  0  0  0  0  0  0  0  0  0
    0.7481    2.9798    4.9622 H   0  0  0  0  0  0  0  0  0  0  0  0
    2.9394    3.9911    4.3851 H   0  0  0  0  0  0  0  0  0  0  0  0
  1  2  2  0  0  0  0
  1  5  1  0  0  0  0
  1 17  1  0  0  0  0
  2 11  1  0  0  0  0
  2 18  1  0  0  0  0
  3  8  1  0  0  0  0
  3 19  1  0  0  0  0
  4  9  1  0  0  0  0
  4 20  1  0  0  0  0
  5  6  2  0  0  0  0
  5  7  1  0  0  0  0
  6  8  1  0  0  0  0
  6 21  1  0  0  0  0
  7  9  2  0  0  0  0
  7 22  1  0  0  0  0
  8 10  2  0  0  0  0
  9 10  1  0  0  0  0
 10 23  1  0  0  0  0
 11 12  2  0  0  0  0
 11 13  1  0  0  0  0
 12 14  1  0  0  0  0
 12 24  1  0  0  0  0
 13 15  2  0  0  0  0
 13 25  1  0  0  0  0
 14 16  2  0  0  0  0
 14 26  1  0  0  0  0
 15 16  1  0  0  0  0
 15 27  1  0  0  0  0
 16 28  1  0  0  0  0
M  END
>  <Mol_ID>
9709

>  <Formula>
C14H12O2

>  <MolWeight>
212.24388

>  <Cat>
E0901

>  <Name>
Pinosylvin

>  <Synonyms>
trans-3,5-dihydroxystilbene

>  <Target>
COX-2, TNF-¦Á, IL-6

>  <Form>
Free Base

>  <CAS>
22139-77-1

>  <URL>
https://www.selleckchem.com/products/pinosylvin.html

$$$$
