Piperazine adipate
 OpenBabel08302521453D

 36 35  0  0  0  0  0  0  0  0999 V2000
   -2.1693   -3.7349    1.3611 O   0  0  0  0  0  0  0  0  0  0  0  0
   -3.1513    4.7164    1.8479 O   0  0  0  0  0  0  0  0  0  0  0  0
   -3.4842   -2.8192    2.9160 O   0  0  0  0  0  0  0  0  0  0  0  0
   -1.2176    3.8075    1.1366 O   0  0  0  0  0  0  0  0  0  0  0  0
   -0.3098    0.0816   -0.8404 N   0  0  0  0  0  0  0  0  0  0  0  0
    2.6359    0.0107   -0.9338 N   0  0  0  0  0  0  0  0  0  0  0  0
    1.8349   -1.2195   -0.8009 C   0  0  0  0  0  0  0  0  0  0  0  0
    0.4097   -1.0831   -1.3757 C   0  0  0  0  0  0  0  0  0  0  0  0
    1.8914    1.1512   -0.3669 C   0  0  0  0  0  0  0  0  0  0  0  0
    0.4959    1.3038   -1.0027 C   0  0  0  0  0  0  0  0  0  0  0  0
   -2.7256   -0.1530    2.1828 C   0  0  0  0  0  0  0  0  0  0  0  0
   -2.2339    1.1682    1.5838 C   0  0  0  0  0  0  0  0  0  0  0  0
   -2.2064   -1.3742    1.4178 C   0  0  0  0  0  0  0  0  0  0  0  0
   -2.8156    2.3894    2.2911 C   0  0  0  0  0  0  0  0  0  0  0  0
   -2.7047   -2.6713    1.9923 C   0  0  0  0  0  0  0  0  0  0  0  0
   -2.2987    3.6789    1.6811 C   0  0  0  0  0  0  0  0  0  0  0  0
   -2.5560   -4.5087    1.8224 H   0  0  0  0  0  0  0  0  0  0  0  0
   -3.9739    4.4906    2.3197 H   0  0  0  0  0  0  0  0  0  0  0  0
   -0.3672   -0.0615    0.1648 H   0  0  0  0  0  0  0  0  0  0  0  0
    2.7509    0.1948   -1.9316 H   0  0  0  0  0  0  0  0  0  0  0  0
    1.7827   -1.4993    0.2591 H   0  0  0  0  0  0  0  0  0  0  0  0
    2.3518   -2.0360   -1.3164 H   0  0  0  0  0  0  0  0  0  0  0  0
   -0.1631   -1.9856   -1.1307 H   0  0  0  0  0  0  0  0  0  0  0  0
    0.4414   -1.0128   -2.4682 H   0  0  0  0  0  0  0  0  0  0  0  0
    1.7992    1.0206    0.7196 H   0  0  0  0  0  0  0  0  0  0  0  0
    2.4667    2.0691   -0.5256 H   0  0  0  0  0  0  0  0  0  0  0  0
    0.5775    1.5497   -2.0668 H   0  0  0  0  0  0  0  0  0  0  0  0
   -0.0301    2.1352   -0.5235 H   0  0  0  0  0  0  0  0  0  0  0  0
   -3.8213   -0.1681    2.1882 H   0  0  0  0  0  0  0  0  0  0  0  0
   -2.4001   -0.2179    3.2279 H   0  0  0  0  0  0  0  0  0  0  0  0
   -1.1407    1.2117    1.6521 H   0  0  0  0  0  0  0  0  0  0  0  0
   -2.4988    1.2154    0.5196 H   0  0  0  0  0  0  0  0  0  0  0  0
   -1.1139   -1.4073    1.4722 H   0  0  0  0  0  0  0  0  0  0  0  0
   -2.5267   -1.3288    0.3714 H   0  0  0  0  0  0  0  0  0  0  0  0
   -3.9075    2.3624    2.2065 H   0  0  0  0  0  0  0  0  0  0  0  0
   -2.5413    2.3913    3.3507 H   0  0  0  0  0  0  0  0  0  0  0  0
  1 15  1  0  0  0  0
  1 17  1  0  0  0  0
  2 16  1  0  0  0  0
  2 18  1  0  0  0  0
  3 15  2  0  0  0  0
  4 16  2  0  0  0  0
  5  8  1  0  0  0  0
  5 10  1  0  0  0  0
  5 19  1  0  0  0  0
  6  7  1  0  0  0  0
  6  9  1  0  0  0  0
  6 20  1  0  0  0  0
  7  8  1  0  0  0  0
  7 21  1  0  0  0  0
  7 22  1  0  0  0  0
  8 23  1  0  0  0  0
  8 24  1  0  0  0  0
  9 10  1  0  0  0  0
  9 25  1  0  0  0  0
  9 26  1  0  0  0  0
 10 27  1  0  0  0  0
 10 28  1  0  0  0  0
 11 12  1  0  0  0  0
 11 13  1  0  0  0  0
 11 29  1  0  0  0  0
 11 30  1  0  0  0  0
 12 14  1  0  0  0  0
 12 31  1  0  0  0  0
 12 32  1  0  0  0  0
 13 15  1  0  0  0  0
 13 33  1  0  0  0  0
 13 34  1  0  0  0  0
 14 16  1  0  0  0  0
 14 35  1  0  0  0  0
 14 36  1  0  0  0  0
M  END
>  <Mol_ID>
9377

>  <Formula>
C10H20N2O4

>  <MolWeight>
232.2768

>  <Cat>
S4443

>  <Name>
Piperazine adipate

>  <Synonyms>
N/A

>  <Target>
Parasite

>  <Form>
Free Base

>  <CAS>
142-88-1

>  <URL>
http://www.selleckchem.com/products/piperazine-adipate.html

$$$$
