Piperlonguminine
 OpenBabel08302521533D

 39 40  0  0  0  0  0  0  0  0999 V2000
    0.9721   -0.0071    0.0509 C   0  0  0  0  0  0  0  0  0  0  0  0
    0.3535   -1.0892   -0.4512 C   0  0  0  0  0  0  0  0  0  0  0  0
    1.0748   -2.2363   -0.9627 C   0  0  0  0  0  0  0  0  0  0  0  0
    0.4749   -3.3294   -1.4625 C   0  0  0  0  0  0  0  0  0  0  0  0
    1.3029   -4.4635   -1.9566 C   0  0  0  0  0  0  0  0  0  0  0  0
    0.5578   -5.5019   -2.4586 N   0  0  0  0  0  0  0  0  0  0  0  0
    2.5274   -4.4546   -1.9122 O   0  0  0  0  0  0  0  0  0  0  0  0
    1.1696   -6.7164   -2.9707 C   0  0  0  0  0  0  0  0  0  0  0  0
    1.4132   -7.7798   -1.8856 C   0  0  0  0  0  0  0  0  0  0  0  0
    0.1098   -8.2242   -1.2178 C   0  0  0  0  0  0  0  0  0  0  0  0
    2.1164   -8.9987   -2.4899 C   0  0  0  0  0  0  0  0  0  0  0  0
   -1.5452    2.2585    1.6892 C   0  0  0  0  0  0  0  0  0  0  0  0
   -0.9019    3.4700    1.6153 C   0  0  0  0  0  0  0  0  0  0  0  0
   -0.9828    1.1011    1.1901 C   0  0  0  0  0  0  0  0  0  0  0  0
   -2.7558    2.3502    2.3031 O   0  0  0  0  0  0  0  0  0  0  0  0
    0.3442    3.5904    1.0428 C   0  0  0  0  0  0  0  0  0  0  0  0
   -1.6271    4.4776    2.1688 O   0  0  0  0  0  0  0  0  0  0  0  0
    0.2807    1.1796    0.5840 C   0  0  0  0  0  0  0  0  0  0  0  0
   -2.7792    3.7517    2.6450 C   0  0  0  0  0  0  0  0  0  0  0  0
    0.9409    2.4311    0.5317 C   0  0  0  0  0  0  0  0  0  0  0  0
    2.0588    0.0372    0.0694 H   0  0  0  0  0  0  0  0  0  0  0  0
   -0.7326   -1.1328   -0.4932 H   0  0  0  0  0  0  0  0  0  0  0  0
    2.1633   -2.1916   -0.9295 H   0  0  0  0  0  0  0  0  0  0  0  0
   -0.6014   -3.4176   -1.5145 H   0  0  0  0  0  0  0  0  0  0  0  0
   -0.4508   -5.4418   -2.4674 H   0  0  0  0  0  0  0  0  0  0  0  0
    0.5018   -7.1053   -3.7477 H   0  0  0  0  0  0  0  0  0  0  0  0
    2.1192   -6.4517   -3.4503 H   0  0  0  0  0  0  0  0  0  0  0  0
    2.0654   -7.3570   -1.1107 H   0  0  0  0  0  0  0  0  0  0  0  0
   -0.5833   -8.6557   -1.9484 H   0  0  0  0  0  0  0  0  0  0  0  0
    0.3070   -8.9827   -0.4527 H   0  0  0  0  0  0  0  0  0  0  0  0
   -0.3917   -7.3846   -0.7262 H   0  0  0  0  0  0  0  0  0  0  0  0
    3.0711   -8.7156   -2.9460 H   0  0  0  0  0  0  0  0  0  0  0  0
    2.3244   -9.7498   -1.7205 H   0  0  0  0  0  0  0  0  0  0  0  0
    1.4992   -9.4716   -3.2620 H   0  0  0  0  0  0  0  0  0  0  0  0
   -1.5168    0.1632    1.2888 H   0  0  0  0  0  0  0  0  0  0  0  0
    0.8464    4.5501    0.9953 H   0  0  0  0  0  0  0  0  0  0  0  0
   -3.6824    4.2027    2.2182 H   0  0  0  0  0  0  0  0  0  0  0  0
   -2.8228    3.8432    3.7366 H   0  0  0  0  0  0  0  0  0  0  0  0
    1.9293    2.5094    0.0822 H   0  0  0  0  0  0  0  0  0  0  0  0
  1  2  2  0  0  0  0
  1 18  1  0  0  0  0
  1 21  1  0  0  0  0
  2  3  1  0  0  0  0
  2 22  1  0  0  0  0
  3  4  2  0  0  0  0
  3 23  1  0  0  0  0
  4  5  1  0  0  0  0
  4 24  1  0  0  0  0
  5  6  1  0  0  0  0
  5  7  2  0  0  0  0
  6  8  1  0  0  0  0
  6 25  1  0  0  0  0
  8  9  1  0  0  0  0
  8 26  1  0  0  0  0
  8 27  1  0  0  0  0
  9 10  1  0  0  0  0
  9 11  1  0  0  0  0
  9 28  1  0  0  0  0
 10 29  1  0  0  0  0
 10 30  1  0  0  0  0
 10 31  1  0  0  0  0
 11 32  1  0  0  0  0
 11 33  1  0  0  0  0
 11 34  1  0  0  0  0
 12 13  1  0  0  0  0
 12 14  2  0  0  0  0
 12 15  1  0  0  0  0
 13 16  2  0  0  0  0
 13 17  1  0  0  0  0
 14 18  1  0  0  0  0
 14 35  1  0  0  0  0
 15 19  1  0  0  0  0
 16 20  1  0  0  0  0
 16 36  1  0  0  0  0
 17 19  1  0  0  0  0
 18 20  2  0  0  0  0
 19 37  1  0  0  0  0
 19 38  1  0  0  0  0
 20 39  1  0  0  0  0
M  END
>  <Mol_ID>
9987

>  <Formula>
C16H19NO3

>  <MolWeight>
273.32696

>  <Cat>
E5372

>  <Name>
Piperlonguminine

>  <Synonyms>
N/A

>  <Target>
Immunology & Inflammation related, NF-¦ÊB, p38 MAPK

>  <Form>
free base

>  <CAS>
5950-12-9

>  <URL>
https://www.selleckchem.com/products/piperlonguminine.html

$$$$
