Piperitone
 OpenBabel08302521373D

 27 27  0  0  0  0  0  0  0  0999 V2000
    0.9066    0.0087    0.0237 C   0  0  0  0  0  0  0  0  0  0  0  0
    0.1169    0.3458    1.2945 C   0  0  0  0  0  0  0  0  0  0  0  0
    2.4070    0.0137    0.3482 C   0  0  0  0  0  0  0  0  0  0  0  0
    1.5149   -0.6719   -2.7018 O   0  0  0  0  0  0  0  0  0  0  0  0
    1.5441    3.8486   -4.3624 C   0  0  0  0  0  0  0  0  0  0  0  0
    0.5291    0.9332   -1.1683 C   0  0  3  0  0  0  0  0  0  0  0  0
    1.2515    0.5054   -2.4472 C   0  0  0  0  0  0  0  0  0  0  0  0
    0.7565    2.4226   -0.8729 C   0  0  0  0  0  0  0  0  0  0  0  0
    1.5844    1.5325   -3.4664 C   0  0  0  0  0  0  0  0  0  0  0  0
    0.5299    3.3192   -2.0862 C   0  0  0  0  0  0  0  0  0  0  0  0
    1.2398    2.8194   -3.3125 C   0  0  0  0  0  0  0  0  0  0  0  0
    0.6420   -1.0214   -0.2513 H   0  0  0  0  0  0  0  0  0  0  0  0
    0.3636   -0.3558    2.0990 H   0  0  0  0  0  0  0  0  0  0  0  0
    0.3458    1.3505    1.6631 H   0  0  0  0  0  0  0  0  0  0  0  0
   -0.9603    0.2808    1.1141 H   0  0  0  0  0  0  0  0  0  0  0  0
    3.0029   -0.3267   -0.5031 H   0  0  0  0  0  0  0  0  0  0  0  0
    2.7608    1.0077    0.6362 H   0  0  0  0  0  0  0  0  0  0  0  0
    2.6207   -0.6627    1.1832 H   0  0  0  0  0  0  0  0  0  0  0  0
    0.6181    4.3189   -4.7118 H   0  0  0  0  0  0  0  0  0  0  0  0
    2.1982    4.6264   -3.9547 H   0  0  0  0  0  0  0  0  0  0  0  0
    2.0459    3.4132   -5.2329 H   0  0  0  0  0  0  0  0  0  0  0  0
   -0.5414    0.7911   -1.3801 H   0  0  0  0  0  0  0  0  0  0  0  0
    0.0855    2.7567   -0.0735 H   0  0  0  0  0  0  0  0  0  0  0  0
    1.7802    2.5872   -0.5167 H   0  0  0  0  0  0  0  0  0  0  0  0
    2.0958    1.1630   -4.3495 H   0  0  0  0  0  0  0  0  0  0  0  0
    0.8883    4.3246   -1.8317 H   0  0  0  0  0  0  0  0  0  0  0  0
   -0.5420    3.4051   -2.3024 H   0  0  0  0  0  0  0  0  0  0  0  0
  1  2  1  0  0  0  0
  1  3  1  0  0  0  0
  1  6  1  0  0  0  0
  1 12  1  0  0  0  0
  2 13  1  0  0  0  0
  2 14  1  0  0  0  0
  2 15  1  0  0  0  0
  3 16  1  0  0  0  0
  3 17  1  0  0  0  0
  3 18  1  0  0  0  0
  4  7  2  0  0  0  0
  5 11  1  0  0  0  0
  5 19  1  0  0  0  0
  5 20  1  0  0  0  0
  5 21  1  0  0  0  0
  6  7  1  0  0  0  0
  6  8  1  0  0  0  0
  6 22  1  0  0  0  0
  7  9  1  0  0  0  0
  8 10  1  0  0  0  0
  8 23  1  0  0  0  0
  8 24  1  0  0  0  0
  9 11  2  0  0  0  0
  9 25  1  0  0  0  0
 10 11  1  0  0  0  0
 10 26  1  0  0  0  0
 10 27  1  0  0  0  0
M  END
>  <Mol_ID>
7382

>  <Formula>
C10H16O

>  <MolWeight>
152.23344

>  <Cat>
E4440

>  <Name>
Piperitone

>  <Synonyms>
piperitone

>  <Target>
Others

>  <Form>
free base

>  <CAS>
89-81-6

>  <URL>
https://www.selleckchem.com/products/piperitone.html

$$$$
