Pipecolic acid
 OpenBabel08302521383D

 20 20  0  0  0  0  0  0  0  0999 V2000
    0.6717    1.1494   -0.3561 C   0  0  3  0  0  0  0  0  0  0  0  0
   -0.7670    1.2204    0.1628 C   0  0  0  0  0  0  0  0  0  0  0  0
   -1.5550   -0.0576   -0.1140 C   0  0  0  0  0  0  0  0  0  0  0  0
   -0.7839   -1.2883    0.3478 C   0  0  0  0  0  0  0  0  0  0  0  0
    0.6471   -1.2961   -0.1795 C   0  0  0  0  0  0  0  0  0  0  0  0
    1.3660   -0.0625    0.1428 N   0  0  0  0  0  0  0  0  0  0  0  0
    0.7493    1.2783   -1.8854 C   0  0  0  0  0  0  0  0  0  0  0  0
   -0.0390    1.8632   -2.6124 O   0  0  0  0  0  0  0  0  0  0  0  0
    1.8649    0.7247   -2.4156 O   0  0  0  0  0  0  0  0  0  0  0  0
    1.2176    2.0191    0.0313 H   0  0  0  0  0  0  0  0  0  0  0  0
   -1.2965    2.0731   -0.2781 H   0  0  0  0  0  0  0  0  0  0  0  0
   -0.7455    1.3928    1.2471 H   0  0  0  0  0  0  0  0  0  0  0  0
   -2.5225   -0.0136    0.3974 H   0  0  0  0  0  0  0  0  0  0  0  0
   -1.7655   -0.1368   -1.1873 H   0  0  0  0  0  0  0  0  0  0  0  0
   -0.7719   -1.3204    1.4447 H   0  0  0  0  0  0  0  0  0  0  0  0
   -1.3037   -2.1928    0.0094 H   0  0  0  0  0  0  0  0  0  0  0  0
    1.1858   -2.1370    0.2724 H   0  0  0  0  0  0  0  0  0  0  0  0
    0.6486   -1.4698   -1.2615 H   0  0  0  0  0  0  0  0  0  0  0  0
    2.2831   -0.0955   -0.3089 H   0  0  0  0  0  0  0  0  0  0  0  0
    1.7833    0.9158   -3.3736 H   0  0  0  0  0  0  0  0  0  0  0  0
  1  2  1  0  0  0  0
  1  6  1  0  0  0  0
  1  7  1  0  0  0  0
  1 10  1  0  0  0  0
  2  3  1  0  0  0  0
  2 11  1  0  0  0  0
  2 12  1  0  0  0  0
  3  4  1  0  0  0  0
  3 13  1  0  0  0  0
  3 14  1  0  0  0  0
  4  5  1  0  0  0  0
  4 15  1  0  0  0  0
  4 16  1  0  0  0  0
  5  6  1  0  0  0  0
  5 17  1  0  0  0  0
  5 18  1  0  0  0  0
  6 19  1  0  0  0  0
  7  8  2  0  0  0  0
  7  9  1  0  0  0  0
  9 20  1  0  0  0  0
M  END
>  <Mol_ID>
7925

>  <Formula>
C6H11NO2

>  <MolWeight>
129.15704

>  <Cat>
S6322

>  <Name>
Pipecolic acid

>  <Synonyms>
piperidine-2-carboxylic acid

>  <Target>
Immunology & Inflammation related

>  <Form>
free base

>  <CAS>
535-75-1

>  <URL>
http://www.selleck.cn/products/pipecolic-acid.html

$$$$
