Pirfenidone.cdx
 OpenBabel08302522003D

 25 26  0  0  0  0  0  0  0  0999 V2000
   -1.3922   -0.0774   -0.0883 N   0  0  0  0  0  0  0  0  0  0  0  0
   -2.8411   -0.1361   -0.2018 C   0  0  0  0  0  0  0  0  0  0  0  0
   -0.6410   -1.2739    0.0369 C   0  0  0  0  0  0  0  0  0  0  0  0
   -0.7176    1.1484   -0.1446 C   0  0  0  0  0  0  0  0  0  0  0  0
   -3.5843   -1.2306    0.2679 C   0  0  0  0  0  0  0  0  0  0  0  0
   -3.5684    0.9078   -0.8076 C   0  0  0  0  0  0  0  0  0  0  0  0
    0.8389   -1.1286    0.0828 C   0  0  0  0  0  0  0  0  0  0  0  0
   -1.0643   -2.4290    0.0723 O   0  0  0  0  0  0  0  0  0  0  0  0
    0.6193    1.2595   -0.1122 C   0  0  0  0  0  0  0  0  0  0  0  0
   -4.9741   -1.3009    0.1129 C   0  0  0  0  0  0  0  0  0  0  0  0
   -4.9599    0.8454   -0.9567 C   0  0  0  0  0  0  0  0  0  0  0  0
    1.4229    0.0692   -0.0040 C   0  0  0  0  0  0  0  0  0  0  0  0
    1.3323    2.5760   -0.1685 C   0  0  0  0  0  0  0  0  0  0  0  0
   -5.6619   -0.2648   -0.5035 C   0  0  0  0  0  0  0  0  0  0  0  0
   -1.3199    2.0487   -0.1879 H   0  0  0  0  0  0  0  0  0  0  0  0
   -3.1129   -2.0591    0.7911 H   0  0  0  0  0  0  0  0  0  0  0  0
   -3.0758    1.7765   -1.2281 H   0  0  0  0  0  0  0  0  0  0  0  0
    1.4075   -2.0462    0.1678 H   0  0  0  0  0  0  0  0  0  0  0  0
   -5.5109   -2.1735    0.4774 H   0  0  0  0  0  0  0  0  0  0  0  0
   -5.4896    1.6598   -1.4446 H   0  0  0  0  0  0  0  0  0  0  0  0
    2.5056    0.1575    0.0131 H   0  0  0  0  0  0  0  0  0  0  0  0
    2.0050    2.6905    0.6888 H   0  0  0  0  0  0  0  0  0  0  0  0
    1.9266    2.6486   -1.0870 H   0  0  0  0  0  0  0  0  0  0  0  0
    0.6351    3.4195   -0.1559 H   0  0  0  0  0  0  0  0  0  0  0  0
   -6.7400   -0.3239   -0.6326 H   0  0  0  0  0  0  0  0  0  0  0  0
  1  2  1  0  0  0  0
  1  3  1  0  0  0  0
  1  4  1  0  0  0  0
  2  5  2  0  0  0  0
  2  6  1  0  0  0  0
  3  7  1  0  0  0  0
  3  8  2  0  0  0  0
  4  9  2  0  0  0  0
  4 15  1  0  0  0  0
  5 10  1  0  0  0  0
  5 16  1  0  0  0  0
  6 11  2  0  0  0  0
  6 17  1  0  0  0  0
  7 12  2  0  0  0  0
  7 18  1  0  0  0  0
  9 13  1  0  0  0  0
  9 12  1  0  0  0  0
 10 14  2  0  0  0  0
 10 19  1  0  0  0  0
 11 14  1  0  0  0  0
 11 20  1  0  0  0  0
 12 21  1  0  0  0  0
 13 22  1  0  0  0  0
 13 23  1  0  0  0  0
 13 24  1  0  0  0  0
 14 25  1  0  0  0  0
M  END
>  <Mol_ID>
1064

>  <Formula>
C12H11NO

>  <MolWeight>
185.22184

>  <Cat>
S2907

>  <Name>
Pirfenidone (S-7701)

>  <Synonyms>
AMR-69

>  <Target>
CCR,TGF-beta/Smad

>  <Form>
free base

>  <CAS>
53179-13-8

>  <URL>
http://selleckchem.com/products/pirfenidone.html

$$$$
