Pleuromutilin
 OpenBabel08302521303D

 61 63  0  0  0  0  0  0  0  0999 V2000
    6.4189   -0.1361   -0.4425 O   0  0  0  0  0  0  0  0  0  0  0  0
    1.6701    0.2222   -2.3016 O   0  0  0  0  0  0  0  0  0  0  0  0
    5.7832   -4.8710   -3.0402 O   0  0  0  0  0  0  0  0  0  0  0  0
    6.7049   -1.4131    1.4065 O   0  0  0  0  0  0  0  0  0  0  0  0
    7.5476    1.0631    2.7179 O   0  0  0  0  0  0  0  0  0  0  0  0
    4.4377   -1.6301   -4.2357 C   0  0  3  0  0  0  0  0  0  0  0  0
    5.3237   -2.4596   -3.2509 C   0  0  2  0  0  0  0  0  0  0  0  0
    6.5234   -1.7341   -2.6463 C   0  0  3  0  0  0  0  0  0  0  0  0
    3.5225   -0.4948   -3.5744 C   0  0  2  0  0  0  0  0  0  0  0  0
    7.2406   -0.5459   -3.4982 C   0  0  1  0  0  0  0  0  0  0  0  0
    5.3972   -0.9414   -5.2287 C   0  0  0  0  0  0  0  0  0  0  0  0
    3.5703   -2.7946   -4.7978 C   0  0  0  0  0  0  0  0  0  0  0  0
    5.6914   -1.0625   -1.2919 C   0  0  1  0  0  0  0  0  0  0  0  0
    6.3674    0.0809   -4.5710 C   0  0  0  0  0  0  0  0  0  0  0  0
    5.2865   -3.9037   -3.6459 C   0  0  0  0  0  0  0  0  0  0  0  0
    2.3354   -0.9932   -2.7462 C   0  0  1  0  0  0  0  0  0  0  0  0
    4.3109   -4.1183   -4.7893 C   0  0  0  0  0  0  0  0  0  0  0  0
    2.6169   -1.8858   -1.4563 C   0  0  2  0  0  0  0  0  0  0  0  0
    4.0680   -1.4719   -0.6393 C   0  0  0  0  0  0  0  0  0  0  0  0
    7.7173   -2.7635   -2.8295 C   0  0  0  0  0  0  0  0  0  0  0  0
    3.1238    0.6808   -4.5137 C   0  0  0  0  0  0  0  0  0  0  0  0
    8.1640    0.4074   -2.6944 C   0  0  0  0  0  0  0  0  0  0  0  0
    2.5562   -3.4516   -1.5899 C   0  0  0  0  0  0  0  0  0  0  0  0
    1.1520   -1.8026   -0.8611 C   0  0  0  0  0  0  0  0  0  0  0  0
    6.6418   -0.3238    0.8662 C   0  0  0  0  0  0  0  0  0  0  0  0
    0.5617   -1.2986    0.2228 C   0  0  0  0  0  0  0  0  0  0  0  0
    6.6875    1.0221    1.5912 C   0  0  0  0  0  0  0  0  0  0  0  0
    0.9858    0.4397   -2.9607 H   0  0  0  0  0  0  0  0  0  0  0  0
    7.3172    0.2941    3.2695 H   0  0  0  0  0  0  0  0  0  0  0  0
    4.6906   -2.6146   -2.3879 H   0  0  0  0  0  0  0  0  0  0  0  0
    4.0732    0.1022   -2.8679 H   0  0  0  0  0  0  0  0  0  0  0  0
    8.0151   -0.9777   -4.1514 H   0  0  0  0  0  0  0  0  0  0  0  0
    4.8192   -0.4162   -5.9942 H   0  0  0  0  0  0  0  0  0  0  0  0
    5.9745   -1.6964   -5.7735 H   0  0  0  0  0  0  0  0  0  0  0  0
    3.1228   -2.5902   -5.7637 H   0  0  0  0  0  0  0  0  0  0  0  0
    2.7303   -2.9727   -4.1256 H   0  0  0  0  0  0  0  0  0  0  0  0
    5.3326   -0.2294   -1.8628 H   0  0  0  0  0  0  0  0  0  0  0  0
    5.8814    0.9664   -4.1592 H   0  0  0  0  0  0  0  0  0  0  0  0
    7.0209    0.4597   -5.3717 H   0  0  0  0  0  0  0  0  0  0  0  0
    1.6054   -1.4843   -3.4059 H   0  0  0  0  0  0  0  0  0  0  0  0
    4.8685   -4.3758   -5.6646 H   0  0  0  0  0  0  0  0  0  0  0  0
    3.6495   -4.9530   -4.4629 H   0  0  0  0  0  0  0  0  0  0  0  0
    4.2674   -2.3061    0.0462 H   0  0  0  0  0  0  0  0  0  0  0  0
    3.8034   -0.6142   -0.0086 H   0  0  0  0  0  0  0  0  0  0  0  0
    8.6815   -2.4680   -2.4136 H   0  0  0  0  0  0  0  0  0  0  0  0
    7.5712   -3.8181   -2.6228 H   0  0  0  0  0  0  0  0  0  0  0  0
    7.9084   -2.8263   -3.9343 H   0  0  0  0  0  0  0  0  0  0  0  0
    2.4837    1.4199   -4.0184 H   0  0  0  0  0  0  0  0  0  0  0  0
    3.9958    1.2869   -4.7760 H   0  0  0  0  0  0  0  0  0  0  0  0
    2.6345    0.3456   -5.4247 H   0  0  0  0  0  0  0  0  0  0  0  0
    7.6653    1.0012   -1.9301 H   0  0  0  0  0  0  0  0  0  0  0  0
    8.9674   -0.1636   -2.2057 H   0  0  0  0  0  0  0  0  0  0  0  0
    8.6676    1.1237   -3.3554 H   0  0  0  0  0  0  0  0  0  0  0  0
    2.1348   -3.9071   -0.6759 H   0  0  0  0  0  0  0  0  0  0  0  0
    1.8947   -3.7841   -2.4014 H   0  0  0  0  0  0  0  0  0  0  0  0
    3.5124   -3.9523   -1.6934 H   0  0  0  0  0  0  0  0  0  0  0  0
    0.4128   -2.2230   -1.5688 H   0  0  0  0  0  0  0  0  0  0  0  0
   -0.5321   -1.3484    0.2819 H   0  0  0  0  0  0  0  0  0  0  0  0
    1.0913   -0.7976    1.0164 H   0  0  0  0  0  0  0  0  0  0  0  0
    7.0014    1.8138    0.9031 H   0  0  0  0  0  0  0  0  0  0  0  0
    5.6711    1.2582    1.9288 H   0  0  0  0  0  0  0  0  0  0  0  0
  1 25  1  0  0  0  0
  2 28  1  0  0  0  0
  3 15  2  0  0  0  0
  4 25  2  0  0  0  0
  5 27  1  0  0  0  0
  5 29  1  0  0  0  0
  6  9  1  0  0  0  0
  6 11  1  0  0  0  0
  6 12  1  0  0  0  0
  7  6  1  0  0  0  0
  7  8  1  0  0  0  0
  7 15  1  0  0  0  0
  7 30  1  1  0  0  0
  8 10  1  0  0  0  0
  8 13  1  0  0  0  0
  8 20  1  0  0  0  0
  9 16  1  0  0  0  0
  9 21  1  0  0  0  0
  9 31  1  1  0  0  0
 10 14  1  0  0  0  0
 10 32  1  6  0  0  0
 10 22  1  0  0  0  0
 11 14  1  0  0  0  0
 11 33  1  0  0  0  0
 11 34  1  0  0  0  0
 12 17  1  0  0  0  0
 12 35  1  0  0  0  0
 12 36  1  0  0  0  0
 13 19  1  0  0  0  0
 13 37  1  6  0  0  0
 13  1  1  0  0  0  0
 14 38  1  0  0  0  0
 14 39  1  0  0  0  0
 15 17  1  0  0  0  0
 16 18  1  0  0  0  0
 16 40  1  6  0  0  0
 16  2  1  0  0  0  0
 17 41  1  0  0  0  0
 17 42  1  0  0  0  0
 18 19  1  0  0  0  0
 18 23  1  0  0  0  0
 18 24  1  1  0  0  0
 19 43  1  0  0  0  0
 19 44  1  0  0  0  0
 20 45  1  0  0  0  0
 20 46  1  0  0  0  0
 20 47  1  0  0  0  0
 21 48  1  0  0  0  0
 21 49  1  0  0  0  0
 21 50  1  0  0  0  0
 22 51  1  0  0  0  0
 22 52  1  0  0  0  0
 22 53  1  0  0  0  0
 23 54  1  0  0  0  0
 23 55  1  0  0  0  0
 23 56  1  0  0  0  0
 24 26  2  0  0  0  0
 24 57  1  0  0  0  0
 25 27  1  0  0  0  0
 26 58  1  0  0  0  0
 26 59  1  0  0  0  0
 27 60  1  0  0  0  0
 27 61  1  0  0  0  0
M  END
>  <Mol_ID>
5691

>  <Formula>
C22H34O5

>  <MolWeight>
378.50236

>  <Cat>
S4436

>  <Name>
Pleuromutilin

>  <Synonyms>
Drosophilin B, Mutilin 14-glycolate

>  <Target>
Antibiotics,Bacterial

>  <Form>
Free Base

>  <CAS>
125-65-5

>  <URL>
http://www.selleckchem.com/products/pleuromutilin.html

$$$$
