PluriSln 1(NSC 14613).cdx
 OpenBabel08302520413D

 27 28  0  0  0  0  0  0  0  0999 V2000
    5.1025   -2.5505   -1.1646 C   0  0  0  0  0  0  0  0  0  0  0  0
    4.5778   -1.2718   -1.0814 C   0  0  0  0  0  0  0  0  0  0  0  0
    3.5030   -1.0686   -0.2171 C   0  0  0  0  0  0  0  0  0  0  0  0
    2.9980   -2.1394    0.5224 C   0  0  0  0  0  0  0  0  0  0  0  0
    3.6000   -3.3745    0.3755 C   0  0  0  0  0  0  0  0  0  0  0  0
    4.6441   -3.6006   -0.4496 N   0  0  0  0  0  0  0  0  0  0  0  0
    2.8267    0.2467   -0.0975 C   0  0  0  0  0  0  0  0  0  0  0  0
    1.6264    0.2998    0.1614 O   0  0  0  0  0  0  0  0  0  0  0  0
    3.6190    1.3782   -0.2503 N   0  0  0  0  0  0  0  0  0  0  0  0
    3.0265    2.5812    0.2009 N   0  0  0  0  0  0  0  0  0  0  0  0
    3.3162    3.7393   -0.5654 C   0  0  0  0  0  0  0  0  0  0  0  0
    3.9164    3.7227   -1.8272 C   0  0  0  0  0  0  0  0  0  0  0  0
    4.1165    4.9087   -2.5415 C   0  0  0  0  0  0  0  0  0  0  0  0
    3.7138    6.1300   -2.0032 C   0  0  0  0  0  0  0  0  0  0  0  0
    3.1192    6.1662   -0.7461 C   0  0  0  0  0  0  0  0  0  0  0  0
    2.9181    4.9785   -0.0377 C   0  0  0  0  0  0  0  0  0  0  0  0
    5.9243   -2.7800   -1.8384 H   0  0  0  0  0  0  0  0  0  0  0  0
    4.9768   -0.4820   -1.7058 H   0  0  0  0  0  0  0  0  0  0  0  0
    2.1539   -2.0154    1.1931 H   0  0  0  0  0  0  0  0  0  0  0  0
    3.2468   -4.2418    0.9262 H   0  0  0  0  0  0  0  0  0  0  0  0
    4.6183    1.3206   -0.0715 H   0  0  0  0  0  0  0  0  0  0  0  0
    2.0019    2.4637    0.2396 H   0  0  0  0  0  0  0  0  0  0  0  0
    4.2132    2.7825   -2.2889 H   0  0  0  0  0  0  0  0  0  0  0  0
    4.5718    4.8775   -3.5291 H   0  0  0  0  0  0  0  0  0  0  0  0
    3.8608    7.0502   -2.5634 H   0  0  0  0  0  0  0  0  0  0  0  0
    2.8044    7.1143   -0.3175 H   0  0  0  0  0  0  0  0  0  0  0  0
    2.4512    5.0229    0.9440 H   0  0  0  0  0  0  0  0  0  0  0  0
  1  2  2  0  0  0  0
  1  6  1  0  0  0  0
  1 17  1  0  0  0  0
  2  3  1  0  0  0  0
  2 18  1  0  0  0  0
  3  4  2  0  0  0  0
  3  7  1  0  0  0  0
  4  5  1  0  0  0  0
  4 19  1  0  0  0  0
  5  6  2  0  0  0  0
  5 20  1  0  0  0  0
  7  8  2  0  0  0  0
  7  9  1  0  0  0  0
  9 10  1  0  0  0  0
  9 21  1  0  0  0  0
 10 11  1  0  0  0  0
 10 22  1  0  0  0  0
 11 12  2  0  0  0  0
 11 16  1  0  0  0  0
 12 13  1  0  0  0  0
 12 23  1  0  0  0  0
 13 14  2  0  0  0  0
 13 24  1  0  0  0  0
 14 15  1  0  0  0  0
 14 25  1  0  0  0  0
 15 16  2  0  0  0  0
 15 26  1  0  0  0  0
 16 27  1  0  0  0  0
M  END
>  <Mol_ID>
3890

>  <Formula>
C12H11N3O

>  <MolWeight>
213.23524

>  <Cat>
S8076

>  <Name>
PluriSIn #1 (NSC 14613)

>  <Synonyms>
N/A

>  <Target>
SCD

>  <Form>
free base

>  <CAS>
91396-88-2

>  <URL>
http://selleckchem.com/products/PluriSIn-1-nsc-14613.html

$$$$
