PNU 282987 HCl
 OpenBabel08302520143D

 35 37  0  0  0  0  0  0  0  0999 V2000
    1.3774    1.3024   -3.1832 C   0  0  0  0  0  0  0  0  0  0  0  0
    0.9727    2.4157   -2.4784 N   0  0  0  0  0  0  0  0  0  0  0  0
    0.9131    2.4497   -1.0212 C   0  0  1  0  0  0  0  0  0  0  0  0
    2.6337    3.3100    0.6126 N   0  0  3  0  0  0  0  0  0  0  0  0
    0.9381    1.2549   -4.6027 C   0  0  0  0  0  0  0  0  0  0  0  0
    2.2640    2.1906   -0.2972 C   0  0  0  0  0  0  0  0  0  0  0  0
    0.3671    3.8206   -0.5572 C   0  0  3  0  0  0  0  0  0  0  0  0
    2.0318    0.3862   -2.7023 O   0  0  0  0  0  0  0  0  0  0  0  0
    1.7464    0.6180   -5.5476 C   0  0  0  0  0  0  0  0  0  0  0  0
   -0.3115    1.7631   -4.9823 C   0  0  0  0  0  0  0  0  0  0  0  0
    1.4157    4.9045   -0.8722 C   0  0  0  0  0  0  0  0  0  0  0  0
    0.2046    3.7725    0.9690 C   0  0  0  0  0  0  0  0  0  0  0  0
    1.5677    3.4915    1.6191 C   0  0  0  0  0  0  0  0  0  0  0  0
    2.7488    4.5386   -0.2009 C   0  0  0  0  0  0  0  0  0  0  0  0
    0.0622    1.0039   -7.2432 C   0  0  0  0  0  0  0  0  0  0  0  0
   -0.7447    1.6380   -6.3038 C   0  0  0  0  0  0  0  0  0  0  0  0
    1.3081    0.4979   -6.8698 C   0  0  0  0  0  0  0  0  0  0  0  0
    0.4727    3.1372   -2.9770 H   0  0  0  0  0  0  0  0  0  0  0  0
    0.2044    1.6624   -0.7317 H   0  0  0  0  0  0  0  0  0  0  0  0
    2.1839    1.2685    0.2947 H   0  0  0  0  0  0  0  0  0  0  0  0
    3.0842    2.0205   -1.0033 H   0  0  0  0  0  0  0  0  0  0  0  0
   -0.5878    4.0556   -1.0402 H   0  0  0  0  0  0  0  0  0  0  0  0
    2.7112    0.2063   -5.2578 H   0  0  0  0  0  0  0  0  0  0  0  0
   -0.9788    2.2154   -4.2583 H   0  0  0  0  0  0  0  0  0  0  0  0
    1.5584    5.0021   -1.9554 H   0  0  0  0  0  0  0  0  0  0  0  0
    1.0676    5.8770   -0.5082 H   0  0  0  0  0  0  0  0  0  0  0  0
   -0.5148    2.9935    1.2475 H   0  0  0  0  0  0  0  0  0  0  0  0
   -0.1935    4.7273    1.3335 H   0  0  0  0  0  0  0  0  0  0  0  0
    1.5004    2.6004    2.2553 H   0  0  0  0  0  0  0  0  0  0  0  0
    1.8346    4.3144    2.2939 H   0  0  0  0  0  0  0  0  0  0  0  0
    3.0891    5.3697    0.4290 H   0  0  0  0  0  0  0  0  0  0  0  0
    3.5287    4.4075   -0.9611 H   0  0  0  0  0  0  0  0  0  0  0  0
   -0.2853    0.8882   -8.2683 H   0  0  0  0  0  0  0  0  0  0  0  0
   -1.7243    2.0180   -6.5932 H   0  0  0  0  0  0  0  0  0  0  0  0
    1.9343   -0.0058   -7.6031 H   0  0  0  0  0  0  0  0  0  0  0  0
  2  1  1  0  0  0  0
  2 18  1  0  0  0  0
  3 19  1  1  0  0  0
  3  2  1  0  0  0  0
  4  6  1  0  0  0  0
  4 13  1  0  0  0  0
  5  1  1  0  0  0  0
  6  3  1  0  0  0  0
  6 20  1  0  0  0  0
  6 21  1  0  0  0  0
  7  3  1  0  0  0  0
  7 22  1  0  0  0  0
  8  1  2  0  0  0  0
  9  5  2  0  0  0  0
  9 23  1  0  0  0  0
 10  5  1  0  0  0  0
 10 24  1  0  0  0  0
 11  7  1  0  0  0  0
 11 25  1  0  0  0  0
 11 26  1  0  0  0  0
 12  7  1  0  0  0  0
 12 27  1  0  0  0  0
 12 28  1  0  0  0  0
 13 12  1  0  0  0  0
 13 29  1  0  0  0  0
 13 30  1  0  0  0  0
 14  4  1  0  0  0  0
 14 11  1  0  0  0  0
 14 31  1  0  0  0  0
 14 32  1  0  0  0  0
 15 16  1  0  0  0  0
 15 33  1  0  0  0  0
 16 10  2  0  0  0  0
 16 34  1  0  0  0  0
 17  9  1  0  0  0  0
 17 15  2  0  0  0  0
 17 35  1  0  0  0  0
M  END
>  <Mol_ID>
3191

>  <Formula>
C14H18Cl2N2O

>  <MolWeight>
301.21152

>  <Cat>
S5930

>  <Name>
PNU 282987 HCl

>  <Synonyms>
N/A

>  <Target>
AChR

>  <Form>
Free Base

>  <CAS>
123464-89-1

>  <URL>
https://www.selleckchem.com/products/pnu-282987-hcl.html

$$$$
