Polyporusterone B
 OpenBabel08302521463D

 78 81  0  0  1  0  0  0  0  0999 V2000
    2.0694   -0.4426    2.0428 O   0  0  0  0  0  0  0  0  0  0  0  0
    3.0194   -0.0943   -1.6588 C   0  0  0  0  0  0  0  0  0  0  0  0
   -1.0106    0.2409   -2.3946 C   0  0  0  0  0  0  0  0  0  0  0  0
   -1.1202    3.4581   -0.3457 O   0  0  0  0  0  0  0  0  0  0  0  0
    5.5196   -1.7716   -0.3496 C   0  0  2  0  0  0  0  0  0  0  0  0
    5.1364   -3.2321   -0.8026 C   0  0  1  0  0  0  0  0  0  0  0  0
    6.1648   -1.0064   -1.5196 C   0  0  0  0  0  0  0  0  0  0  0  0
    6.5389   -1.8952    0.6764 O   0  0  0  0  0  0  0  0  0  0  0  0
    6.3353   -4.0951   -1.2805 C   0  0  0  0  0  0  0  0  0  0  0  0
    4.5030   -3.9052    0.2950 O   0  0  0  0  0  0  0  0  0  0  0  0
    6.0812   -5.5334   -1.7300 C   0  0  0  0  0  0  0  0  0  0  0  0
    7.3404   -6.2958   -2.1399 C   0  0  0  0  0  0  0  0  0  0  0  0
    4.8724   -6.1231   -1.7597 C   0  0  0  0  0  0  0  0  0  0  0  0
    7.5679   -7.5419   -1.2769 C   0  0  0  0  0  0  0  0  0  0  0  0
    7.3147   -6.6555   -3.6272 C   0  0  0  0  0  0  0  0  0  0  0  0
   -3.9856   -2.4732    0.3704 O   0  0  0  0  0  0  0  0  0  0  0  0
   -4.7171    0.1494    0.5364 O   0  0  0  0  0  0  0  0  0  0  0  0
    0.9064    0.6008    0.2652 C   0  0  0  0  0  0  0  0  0  0  0  0
    2.2740    0.1710    0.7599 C   0  0  2  0  0  0  0  0  0  0  0  0
   -0.0379   -0.5504   -0.1112 C   0  0  1  0  0  0  0  0  0  0  0  0
    0.5324    1.8906    0.2079 C   0  0  0  0  0  0  0  0  0  0  0  0
    2.9399   -0.7939   -0.2734 C   0  0  2  0  0  0  0  0  0  0  0  0
    3.3918    1.1910    1.0318 C   0  0  0  0  0  0  0  0  0  0  0  0
   -1.3189   -0.0865   -0.9068 C   0  0  1  0  0  0  0  0  0  0  0  0
    0.6400   -1.7702   -0.7860 C   0  0  0  0  0  0  0  0  0  0  0  0
   -0.8504    2.2741   -0.1628 C   0  0  0  0  0  0  0  0  0  0  0  0
    4.3359   -1.0279    0.3836 C   0  0  2  0  0  0  0  0  0  0  0  0
    2.0727   -2.0648   -0.3447 C   0  0  0  0  0  0  0  0  0  0  0  0
    4.6956    0.3639    0.9829 C   0  0  0  0  0  0  0  0  0  0  0  0
   -1.9054    1.1854   -0.2418 C   0  0  2  0  0  0  0  0  0  0  0  0
   -2.4047   -1.1958   -0.9034 C   0  0  0  0  0  0  0  0  0  0  0  0
   -2.4883    0.9237    1.1584 C   0  0  0  0  0  0  0  0  0  0  0  0
   -2.9500   -1.4974    0.4938 C   0  0  1  0  0  0  0  0  0  0  0  0
   -3.4911   -0.2308    1.1758 C   0  0  2  0  0  0  0  0  0  0  0  0
    1.4034   -1.1421    1.9829 H   0  0  0  0  0  0  0  0  0  0  0  0
    3.1279    0.9918   -1.5827 H   0  0  0  0  0  0  0  0  0  0  0  0
    3.8381   -0.4541   -2.2667 H   0  0  0  0  0  0  0  0  0  0  0  0
    2.1269   -0.2543   -2.2671 H   0  0  0  0  0  0  0  0  0  0  0  0
   -0.7764   -0.6568   -2.9757 H   0  0  0  0  0  0  0  0  0  0  0  0
   -1.8822    0.6946   -2.8824 H   0  0  0  0  0  0  0  0  0  0  0  0
   -0.1745    0.9380   -2.5047 H   0  0  0  0  0  0  0  0  0  0  0  0
    4.4181   -3.1721   -1.6260 H   0  0  0  0  0  0  0  0  0  0  0  0
    6.2157    0.0703   -1.3433 H   0  0  0  0  0  0  0  0  0  0  0  0
    7.2006   -1.3237   -1.6845 H   0  0  0  0  0  0  0  0  0  0  0  0
    5.6445   -1.1763   -2.4659 H   0  0  0  0  0  0  0  0  0  0  0  0
    7.3947   -2.0801    0.2540 H   0  0  0  0  0  0  0  0  0  0  0  0
    6.8230   -3.5822   -2.1179 H   0  0  0  0  0  0  0  0  0  0  0  0
    7.0618   -4.1580   -0.4613 H   0  0  0  0  0  0  0  0  0  0  0  0
    5.1757   -3.9770    0.9970 H   0  0  0  0  0  0  0  0  0  0  0  0
    8.2107   -5.6490   -1.9961 H   0  0  0  0  0  0  0  0  0  0  0  0
    3.9620   -5.6155   -1.4569 H   0  0  0  0  0  0  0  0  0  0  0  0
    4.7500   -7.1581   -2.0685 H   0  0  0  0  0  0  0  0  0  0  0  0
    6.7834   -8.2943   -1.4187 H   0  0  0  0  0  0  0  0  0  0  0  0
    8.5243   -8.0134   -1.5266 H   0  0  0  0  0  0  0  0  0  0  0  0
    7.5953   -7.2803   -0.2124 H   0  0  0  0  0  0  0  0  0  0  0  0
    7.2150   -5.7522   -4.2408 H   0  0  0  0  0  0  0  0  0  0  0  0
    8.2427   -7.1564   -3.9200 H   0  0  0  0  0  0  0  0  0  0  0  0
    6.4827   -7.3235   -3.8747 H   0  0  0  0  0  0  0  0  0  0  0  0
   -4.8176   -1.9679    0.2977 H   0  0  0  0  0  0  0  0  0  0  0  0
   -4.5183    0.5831   -0.3108 H   0  0  0  0  0  0  0  0  0  0  0  0
   -0.3681   -0.9231    0.8658 H   0  0  0  0  0  0  0  0  0  0  0  0
    1.1839    2.7171    0.4670 H   0  0  0  0  0  0  0  0  0  0  0  0
    3.4386    1.9852    0.2805 H   0  0  0  0  0  0  0  0  0  0  0  0
    3.2930    1.6739    2.0117 H   0  0  0  0  0  0  0  0  0  0  0  0
    0.0382   -2.6668   -0.5931 H   0  0  0  0  0  0  0  0  0  0  0  0
    0.6503   -1.6689   -1.8730 H   0  0  0  0  0  0  0  0  0  0  0  0
    4.1487   -1.6452    1.2778 H   0  0  0  0  0  0  0  0  0  0  0  0
    2.0449   -2.5734    0.6270 H   0  0  0  0  0  0  0  0  0  0  0  0
    2.4833   -2.7888   -1.0491 H   0  0  0  0  0  0  0  0  0  0  0  0
    5.4499    0.9063    0.4096 H   0  0  0  0  0  0  0  0  0  0  0  0
    5.1001    0.2358    1.9954 H   0  0  0  0  0  0  0  0  0  0  0  0
   -2.7049    1.5784   -0.8841 H   0  0  0  0  0  0  0  0  0  0  0  0
   -3.2401   -0.9007   -1.5541 H   0  0  0  0  0  0  0  0  0  0  0  0
   -2.0279   -2.1218   -1.3555 H   0  0  0  0  0  0  0  0  0  0  0  0
   -1.6818    0.7078    1.8702 H   0  0  0  0  0  0  0  0  0  0  0  0
   -2.9732    1.8409    1.5144 H   0  0  0  0  0  0  0  0  0  0  0  0
   -2.1692   -1.9496    1.1151 H   0  0  0  0  0  0  0  0  0  0  0  0
   -3.7606   -0.4687    2.2106 H   0  0  0  0  0  0  0  0  0  0  0  0
  1 35  1  0  0  0  0
  2 36  1  0  0  0  0
  2 37  1  0  0  0  0
  2 38  1  0  0  0  0
  3 39  1  0  0  0  0
  3 40  1  0  0  0  0
  3 41  1  0  0  0  0
  4 26  2  0  0  0  0
  5  6  1  0  0  0  0
  5  7  1  0  0  0  0
  5  8  1  1  0  0  0
  6  9  1  0  0  0  0
  6 10  1  0  0  0  0
  6 42  1  6  0  0  0
  7 43  1  0  0  0  0
  7 44  1  0  0  0  0
  7 45  1  0  0  0  0
  8 46  1  0  0  0  0
  9 11  1  0  0  0  0
  9 47  1  0  0  0  0
  9 48  1  0  0  0  0
 10 49  1  0  0  0  0
 11 12  1  0  0  0  0
 11 13  2  0  0  0  0
 12 14  1  0  0  0  0
 12 15  1  0  0  0  0
 12 50  1  0  0  0  0
 13 51  1  0  0  0  0
 13 52  1  0  0  0  0
 14 53  1  0  0  0  0
 14 54  1  0  0  0  0
 14 55  1  0  0  0  0
 15 56  1  0  0  0  0
 15 57  1  0  0  0  0
 15 58  1  0  0  0  0
 16 59  1  0  0  0  0
 17 60  1  0  0  0  0
 18 19  1  0  0  0  0
 18 20  1  0  0  0  0
 18 21  2  0  0  0  0
 19  1  1  1  0  0  0
 19 22  1  0  0  0  0
 19 23  1  0  0  0  0
 20 24  1  0  0  0  0
 20 25  1  0  0  0  0
 20 61  1  1  0  0  0
 21 26  1  0  0  0  0
 21 62  1  0  0  0  0
 22  2  1  6  0  0  0
 22 27  1  0  0  0  0
 22 28  1  0  0  0  0
 23 29  1  0  0  0  0
 23 63  1  0  0  0  0
 23 64  1  0  0  0  0
 24  3  1  6  0  0  0
 24 30  1  0  0  0  0
 24 31  1  0  0  0  0
 25 28  1  0  0  0  0
 25 65  1  0  0  0  0
 25 66  1  0  0  0  0
 26 30  1  0  0  0  0
 27 29  1  0  0  0  0
 27 67  1  1  0  0  0
 27  5  1  0  0  0  0
 28 68  1  0  0  0  0
 28 69  1  0  0  0  0
 29 70  1  0  0  0  0
 29 71  1  0  0  0  0
 30 32  1  0  0  0  0
 30 72  1  6  0  0  0
 31 33  1  0  0  0  0
 31 73  1  0  0  0  0
 31 74  1  0  0  0  0
 32 34  1  0  0  0  0
 32 75  1  0  0  0  0
 32 76  1  0  0  0  0
 33 16  1  0  0  0  0
 33 34  1  0  0  0  0
 33 77  1  1  0  0  0
 34 17  1  0  0  0  0
 34 78  1  1  0  0  0
M  END
>  <Mol_ID>
9667

>  <Formula>
C28H44O6

>  <MolWeight>
476.64536

>  <Cat>
E0593

>  <Name>
Polyporusterone B

>  <Synonyms>
NA

>  <Target>
AAPH-induced hemolysis

>  <Form>
free base

>  <CAS>
141360-89-6

>  <URL>
https://www.selleckchem.com/products/polyporusterone-b.html

$$$$
