Polyethylenimine
 OpenBabel08302521383D

  8  8  0  0  0  0  0  0  0  0999 V2000
   -0.0568    0.8155    0.0181 N   0  0  0  0  0  0  0  0  0  0  0  0
    0.7529   -0.3966    0.0619 C   0  0  0  0  0  0  0  0  0  0  0  0
   -0.7414   -0.4686   -0.0786 C   0  0  0  0  0  0  0  0  0  0  0  0
    0.0077    1.2665   -0.8966 H   0  0  0  0  0  0  0  0  0  0  0  0
    1.3680   -0.6060   -0.8036 H   0  0  0  0  0  0  0  0  0  0  0  0
    1.1895   -0.6396    1.0227 H   0  0  0  0  0  0  0  0  0  0  0  0
   -1.3223   -0.7637    0.7864 H   0  0  0  0  0  0  0  0  0  0  0  0
   -1.1638   -0.7247   -1.0416 H   0  0  0  0  0  0  0  0  0  0  0  0
  1  2  1  0  0  0  0
  1  3  1  0  0  0  0
  1  4  1  0  0  0  0
  2  3  1  0  0  0  0
  2  5  1  0  0  0  0
  2  6  1  0  0  0  0
  3  7  1  0  0  0  0
  3  8  1  0  0  0  0
M  END
>  <Mol_ID>
7650

>  <Formula>
C2H5N

>  <MolWeight>
43.0678

>  <Cat>
E4019

>  <Name>
Polyethylenimine

>  <Synonyms>
PEI

>  <Target>
Others

>  <Form>
free base

>  <CAS>
9002-98-6

>  <URL>
https://www.selleckchem.com/products/polyethylenimine.html

$$$$
