Potassium Chloride
 OpenBabel08302521452D

  0  0  0  0  0  0  0  0  0  0999 V2000
M  END
>  <Mol_ID>
9483

>  <Formula>
ClK

>  <MolWeight>
74.5513

>  <Cat>
E4470

>  <Name>
Potassium Chloride

>  <Target>
Others

>  <Form>
Potassium

>  <CAS>
7447-40-7

>  <URL>
https://www.selleckchem.com/products/potassium-chloride.html

$$$$
