Potassium thioacetate
 OpenBabel08302520383D

  7  6  0  0  0  0  0  0  0  0999 V2000
    0.9365    0.0753   -0.0108 C   0  0  0  0  0  0  0  0  0  0  0  0
    0.1903   -1.2082    0.2218 C   0  0  0  0  0  0  0  0  0  0  0  0
    0.3726    1.1454   -0.2048 O   0  0  0  0  0  0  0  0  0  0  0  0
    2.6556    0.1214   -0.0192 S   0  5  0  0  0  0  0  0  0  0  0  0
   -0.4379   -1.1007    1.1107 H   0  0  0  0  0  0  0  0  0  0  0  0
   -0.4379   -1.4195   -0.6484 H   0  0  0  0  0  0  0  0  0  0  0  0
    0.8648   -2.0553    0.3753 H   0  0  0  0  0  0  0  0  0  0  0  0
  1  2  1  0  0  0  0
  1  3  2  0  0  0  0
  1  4  1  0  0  0  0
  2  5  1  0  0  0  0
  2  6  1  0  0  0  0
  2  7  1  0  0  0  0
M  CHG  1   4  -1
M  END
>  <Mol_ID>
3513

>  <Formula>
C2H3KOS

>  <MolWeight>
114.20792

>  <Cat>
S6020

>  <Name>
Potassium thioacetate

>  <Synonyms>
N/A

>  <Target>
Others

>  <Form>
free base

>  <CAS>
10387-40-3

>  <URL>
http://www.selleck.cn/products/potassium-thioacetate.html

$$$$
