Potassium oxonate
 OpenBabel08302521453D

 13 13  0  0  0  0  0  0  0  0999 V2000
   -2.3081   -0.8380    0.0356 O   0  0  0  0  0  0  0  0  0  0  0  0
   -1.0805    3.7322   -0.0119 O   0  5  0  0  0  0  0  0  0  0  0  0
    2.1704   -1.0289   -0.0125 O   0  0  0  0  0  0  0  0  0  0  0  0
    1.2019    3.8692   -0.0631 O   0  0  0  0  0  0  0  0  0  0  0  0
   -1.1142    1.0918    0.0321 N   0  0  0  0  0  0  0  0  0  0  0  0
   -0.0531   -0.9250    0.0369 N   0  0  0  0  0  0  0  0  0  0  0  0
    1.2220    1.0465   -0.0152 N   0  0  0  0  0  0  0  0  0  0  0  0
    0.1095    1.7122   -0.0024 C   0  0  0  0  0  0  0  0  0  0  0  0
   -1.2288   -0.2520    0.0370 C   0  0  0  0  0  0  0  0  0  0  0  0
    1.1680   -0.3155    0.0033 C   0  0  0  0  0  0  0  0  0  0  0  0
    0.0994    3.2499   -0.0277 C   0  0  0  0  0  0  0  0  0  0  0  0
   -1.9238    1.7066    0.0305 H   0  0  0  0  0  0  0  0  0  0  0  0
   -0.0667   -1.9281    0.0359 H   0  0  0  0  0  0  0  0  0  0  0  0
  1  9  2  0  0  0  0
  2 11  1  0  0  0  0
  3 10  2  0  0  0  0
  4 11  2  0  0  0  0
  5  8  1  0  0  0  0
  5  9  1  0  0  0  0
  5 12  1  0  0  0  0
  6  9  1  0  0  0  0
  6 10  1  0  0  0  0
  6 13  1  0  0  0  0
  7  8  2  0  0  0  0
  7 10  1  0  0  0  0
  8 11  1  0  0  0  0
M  CHG  1   2  -1
M  END
>  <Mol_ID>
9401

>  <Formula>
C4H2KN3O4

>  <MolWeight>
195.17468

>  <Cat>
E0353

>  <Name>
Potassium oxonate

>  <Synonyms>
Oxonic Acid Potassium Salt

>  <Target>
Others

>  <Form>
Free Base

>  <CAS>
2207-75-2

>  <URL>
http://www.selleckchem.com/products/potassium-oxonate.html

$$$$
