PP442.cdx
 OpenBabel08302521353D

 39 42  0  0  0  0  0  0  0  0999 V2000
   -2.0646   -0.7669   -0.2273 N   0  0  0  0  0  0  0  0  0  0  0  0
   -1.9377    0.5711   -0.1890 C   0  0  0  0  0  0  0  0  0  0  0  0
   -0.8083    1.2895   -0.1023 N   0  0  0  0  0  0  0  0  0  0  0  0
    0.2761    0.4959   -0.0451 C   0  0  0  0  0  0  0  0  0  0  0  0
    0.2959   -0.8872   -0.0891 C   0  0  0  0  0  0  0  0  0  0  0  0
   -0.9491   -1.5264   -0.1743 C   0  0  0  0  0  0  0  0  0  0  0  0
    1.5814    0.8961    0.0780 N   0  0  0  0  0  0  0  0  0  0  0  0
    2.4462   -0.1389    0.2327 N   0  0  0  0  0  0  0  0  0  0  0  0
    1.6752   -1.2194    0.0313 C   0  0  0  0  0  0  0  0  0  0  0  0
   -1.1588   -2.8979   -0.1389 N   0  0  0  0  0  0  0  0  0  0  0  0
    2.0543    2.2761    0.0570 C   0  0  0  0  0  0  0  0  0  0  0  0
    2.8111    2.6423    1.3317 C   0  0  0  0  0  0  0  0  0  0  0  0
    2.8895    2.5606   -1.1915 C   0  0  0  0  0  0  0  0  0  0  0  0
    2.2728   -2.5798    0.0347 C   0  0  0  0  0  0  0  0  0  0  0  0
    3.3974   -2.9427    0.7289 N   0  0  0  0  0  0  0  0  0  0  0  0
    3.5230   -4.3174    0.7266 C   0  0  0  0  0  0  0  0  0  0  0  0
    2.5647   -4.8078   -0.1615 C   0  0  0  0  0  0  0  0  0  0  0  0
    1.8210   -3.6978   -0.6321 C   0  0  0  0  0  0  0  0  0  0  0  0
    4.3931   -5.1629    1.4299 C   0  0  0  0  0  0  0  0  0  0  0  0
    4.2644   -6.5437    1.2216 C   0  0  0  0  0  0  0  0  0  0  0  0
    3.3251   -7.0420    0.3236 C   0  0  0  0  0  0  0  0  0  0  0  0
    2.4790   -6.1947   -0.3874 C   0  0  0  0  0  0  0  0  0  0  0  0
    3.1779   -8.3835    0.1191 O   0  0  0  0  0  0  0  0  0  0  0  0
   -2.8650    1.1350   -0.2196 H   0  0  0  0  0  0  0  0  0  0  0  0
   -0.4948   -3.4063    0.4333 H   0  0  0  0  0  0  0  0  0  0  0  0
   -2.1329   -3.0997    0.0535 H   0  0  0  0  0  0  0  0  0  0  0  0
    1.1639    2.9157    0.0089 H   0  0  0  0  0  0  0  0  0  0  0  0
    3.7280    2.0526    1.4407 H   0  0  0  0  0  0  0  0  0  0  0  0
    3.0895    3.7008    1.3234 H   0  0  0  0  0  0  0  0  0  0  0  0
    2.1901    2.4633    2.2162 H   0  0  0  0  0  0  0  0  0  0  0  0
    2.3197    2.3412   -2.1012 H   0  0  0  0  0  0  0  0  0  0  0  0
    3.1836    3.6158   -1.2281 H   0  0  0  0  0  0  0  0  0  0  0  0
    3.8016    1.9548   -1.2152 H   0  0  0  0  0  0  0  0  0  0  0  0
    3.9534   -2.3008    1.2799 H   0  0  0  0  0  0  0  0  0  0  0  0
    1.0029   -3.7348   -1.3397 H   0  0  0  0  0  0  0  0  0  0  0  0
    5.1251   -4.7716    2.1276 H   0  0  0  0  0  0  0  0  0  0  0  0
    4.9155   -7.2180    1.7727 H   0  0  0  0  0  0  0  0  0  0  0  0
    1.7447   -6.6014   -1.0754 H   0  0  0  0  0  0  0  0  0  0  0  0
    3.7617   -8.8564    0.7319 H   0  0  0  0  0  0  0  0  0  0  0  0
  1  2  2  0  0  0  0
  2  3  1  0  0  0  0
  2 24  1  0  0  0  0
  3  4  2  0  0  0  0
  4  5  1  0  0  0  0
  4  7  1  0  0  0  0
  5  6  2  0  0  0  0
  6  1  1  0  0  0  0
  6 10  1  0  0  0  0
  7  8  1  0  0  0  0
  7 11  1  0  0  0  0
  8  9  2  0  0  0  0
  9  5  1  0  0  0  0
  9 14  1  0  0  0  0
 10 25  1  0  0  0  0
 10 26  1  0  0  0  0
 11 12  1  0  0  0  0
 11 13  1  0  0  0  0
 11 27  1  0  0  0  0
 12 28  1  0  0  0  0
 12 29  1  0  0  0  0
 12 30  1  0  0  0  0
 13 31  1  0  0  0  0
 13 32  1  0  0  0  0
 13 33  1  0  0  0  0
 14 15  1  0  0  0  0
 15 16  1  0  0  0  0
 15 34  1  0  0  0  0
 16 17  2  0  0  0  0
 16 19  1  0  0  0  0
 17 18  1  0  0  0  0
 18 14  2  0  0  0  0
 18 35  1  0  0  0  0
 19 20  2  0  0  0  0
 19 36  1  0  0  0  0
 20 21  1  0  0  0  0
 20 37  1  0  0  0  0
 21 22  2  0  0  0  0
 21 23  1  0  0  0  0
 22 17  1  0  0  0  0
 22 38  1  0  0  0  0
 23 39  1  0  0  0  0
M  END
>  <Mol_ID>
650

>  <Formula>
C16H16N6O

>  <MolWeight>
308.33784

>  <Cat>
S2218

>  <Name>
Torkinib (PP242)

>  <Synonyms>
N/A

>  <Target>
Apoptosis related,Autophagy,Mitophagy,mTOR

>  <Form>
free base

>  <CAS>
1092351-67-1

>  <URL>
http://selleckchem.com/products/PP242.html

$$$$
