PPQ-102
 OpenBabel08302521273D

 55 60  0  0  0  0  0  0  0  0999 V2000
    0.2827    0.1705    0.2519 O   0  0  0  0  0  0  0  0  0  0  0  0
    2.5382    2.1011    5.7332 O   0  0  0  0  0  0  0  0  0  0  0  0
    1.3841   -2.2835    4.8868 O   0  0  0  0  0  0  0  0  0  0  0  0
    2.7565    2.0555    1.3540 N   0  0  0  0  0  0  0  0  0  0  0  0
    3.8964    0.5159   -0.6946 N   0  0  0  0  0  0  0  0  0  0  0  0
    1.9302   -0.9912    3.0828 N   0  0  0  0  0  0  0  0  0  0  0  0
    1.9455   -0.0872    5.2883 N   0  0  0  0  0  0  0  0  0  0  0  0
    2.6215    0.6855    1.3731 C   0  0  0  0  0  0  0  0  0  0  0  0
    2.7451   -0.0044    0.0677 C   0  0  3  0  0  0  0  0  0  0  0  0
    2.3062    0.2718    2.6307 C   0  0  0  0  0  0  0  0  0  0  0  0
    2.9025    2.4936    2.6892 C   0  0  0  0  0  0  0  0  0  0  0  0
    2.5017    1.3872    3.4720 C   0  0  0  0  0  0  0  0  0  0  0  0
    3.1356    2.6629    0.1193 C   0  0  0  0  0  0  0  0  0  0  0  0
    4.0727    1.9332   -0.6119 C   0  0  0  0  0  0  0  0  0  0  0  0
    1.3576   -0.1082   -0.5692 C   0  0  0  0  0  0  0  0  0  0  0  0
    2.3384    1.2101    4.9089 C   0  0  0  0  0  0  0  0  0  0  0  0
    3.5031    3.7942    3.0978 C   0  0  0  0  0  0  0  0  0  0  0  0
    1.7308   -1.1824    4.4446 C   0  0  0  0  0  0  0  0  0  0  0  0
    2.2773    3.4327   -0.6587 C   0  0  0  0  0  0  0  0  0  0  0  0
    4.7122    2.5143   -1.6949 C   0  0  0  0  0  0  0  0  0  0  0  0
    1.6400   -2.1165    2.2055 C   0  0  0  0  0  0  0  0  0  0  0  0
    0.8709   -0.6440   -1.7499 C   0  0  0  0  0  0  0  0  0  0  0  0
    2.6577    3.7252   -1.9824 C   0  0  0  0  0  0  0  0  0  0  0  0
    3.2679    4.9891    2.3965 C   0  0  0  0  0  0  0  0  0  0  0  0
    4.3777    3.8718    4.1961 C   0  0  0  0  0  0  0  0  0  0  0  0
    3.9300    3.3683   -2.4523 C   0  0  0  0  0  0  0  0  0  0  0  0
    1.7591   -0.3313    6.7099 C   0  0  0  0  0  0  0  0  0  0  0  0
   -0.8432   -0.3248   -0.3258 C   0  0  0  0  0  0  0  0  0  0  0  0
   -0.5349   -0.8170   -1.5731 C   0  0  0  0  0  0  0  0  0  0  0  0
    3.8919    6.1908    2.7679 C   0  0  0  0  0  0  0  0  0  0  0  0
    4.9842    5.0760    4.5859 C   0  0  0  0  0  0  0  0  0  0  0  0
   -2.0670   -0.3107    0.5093 C   0  0  0  0  0  0  0  0  0  0  0  0
    4.7391    6.2404    3.8646 C   0  0  0  0  0  0  0  0  0  0  0  0
    4.7788    0.0431   -0.5277 H   0  0  0  0  0  0  0  0  0  0  0  0
    3.0331   -1.0387    0.2298 H   0  0  0  0  0  0  0  0  0  0  0  0
    1.2739    3.6732   -0.3228 H   0  0  0  0  0  0  0  0  0  0  0  0
    5.6208    2.0886   -2.1063 H   0  0  0  0  0  0  0  0  0  0  0  0
    0.7648   -1.8823    1.5995 H   0  0  0  0  0  0  0  0  0  0  0  0
    2.5031   -2.3410    1.5795 H   0  0  0  0  0  0  0  0  0  0  0  0
    1.4126   -3.0330    2.7551 H   0  0  0  0  0  0  0  0  0  0  0  0
    1.4663   -0.9787   -2.5803 H   0  0  0  0  0  0  0  0  0  0  0  0
    1.9514    4.1794   -2.6730 H   0  0  0  0  0  0  0  0  0  0  0  0
    2.6007    5.0094    1.5447 H   0  0  0  0  0  0  0  0  0  0  0  0
    4.6219    2.9825    4.7799 H   0  0  0  0  0  0  0  0  0  0  0  0
    4.2505    3.6263   -3.4577 H   0  0  0  0  0  0  0  0  0  0  0  0
    2.7380   -0.3184    7.1982 H   0  0  0  0  0  0  0  0  0  0  0  0
    1.1332    0.4565    7.1352 H   0  0  0  0  0  0  0  0  0  0  0  0
    1.2837   -1.2959    6.9177 H   0  0  0  0  0  0  0  0  0  0  0  0
   -1.2287   -1.3095   -2.2417 H   0  0  0  0  0  0  0  0  0  0  0  0
    3.7099    7.0919    2.1853 H   0  0  0  0  0  0  0  0  0  0  0  0
    5.6392    5.0989    5.4526 H   0  0  0  0  0  0  0  0  0  0  0  0
   -1.8480   -0.6804    1.5181 H   0  0  0  0  0  0  0  0  0  0  0  0
   -2.4797    0.6986    0.6031 H   0  0  0  0  0  0  0  0  0  0  0  0
   -2.8420   -0.9609    0.0892 H   0  0  0  0  0  0  0  0  0  0  0  0
    5.2139    7.1752    4.1556 H   0  0  0  0  0  0  0  0  0  0  0  0
  1 15  1  0  0  0  0
  1 28  1  0  0  0  0
  2 16  2  0  0  0  0
  3 18  2  0  0  0  0
  4  8  1  0  0  0  0
  4 11  1  0  0  0  0
  4 13  1  0  0  0  0
  5  9  1  0  0  0  0
  5 14  1  0  0  0  0
  5 34  1  0  0  0  0
  6 10  1  0  0  0  0
  6 18  1  0  0  0  0
  6 21  1  0  0  0  0
  7 16  1  0  0  0  0
  7 18  1  0  0  0  0
  7 27  1  0  0  0  0
  8  9  1  0  0  0  0
  8 10  2  0  0  0  0
  9 15  1  0  0  0  0
  9 35  1  0  0  0  0
 10 12  1  0  0  0  0
 11 12  2  0  0  0  0
 11 17  1  0  0  0  0
 12 16  1  0  0  0  0
 13 14  2  0  0  0  0
 13 19  1  0  0  0  0
 14 20  1  0  0  0  0
 15 22  2  0  0  0  0
 17 24  2  0  0  0  0
 17 25  1  0  0  0  0
 19 23  2  0  0  0  0
 19 36  1  0  0  0  0
 20 26  2  0  0  0  0
 20 37  1  0  0  0  0
 21 38  1  0  0  0  0
 21 39  1  0  0  0  0
 21 40  1  0  0  0  0
 22 29  1  0  0  0  0
 22 41  1  0  0  0  0
 23 26  1  0  0  0  0
 23 42  1  0  0  0  0
 24 30  1  0  0  0  0
 24 43  1  0  0  0  0
 25 31  2  0  0  0  0
 25 44  1  0  0  0  0
 26 45  1  0  0  0  0
 27 46  1  0  0  0  0
 27 47  1  0  0  0  0
 27 48  1  0  0  0  0
 28 29  2  0  0  0  0
 28 32  1  0  0  0  0
 29 49  1  0  0  0  0
 30 33  2  0  0  0  0
 30 50  1  0  0  0  0
 31 33  1  0  0  0  0
 31 51  1  0  0  0  0
 32 52  1  0  0  0  0
 32 53  1  0  0  0  0
 32 54  1  0  0  0  0
 33 55  1  0  0  0  0
M  END
>  <Mol_ID>
5357

>  <Formula>
C26H22N4O3

>  <MolWeight>
438.47788

>  <Cat>
S0198

>  <Name>
PPQ-102

>  <Synonyms>
CFTR Inhibitor IV

>  <Target>
CFTR

>  <Form>
Free Base

>  <CAS>
931706-15-9

>  <URL>
https://www.selleckchem.com/products/ppq-102.html

$$$$
