PQ 401.cdx
 OpenBabel08302519553D

 40 42  0  0  0  0  0  0  0  0999 V2000
   -1.0349   -1.0126   -1.3726 N   0  0  0  0  0  0  0  0  0  0  0  0
    0.2960   -0.7085   -1.1012 C   0  0  0  0  0  0  0  0  0  0  0  0
    0.7011   -0.2381   -0.0469 O   0  0  0  0  0  0  0  0  0  0  0  0
    1.0891   -1.0569   -2.1848 N   0  0  0  0  0  0  0  0  0  0  0  0
    5.3024   -1.1741   -2.2750 N   0  0  0  0  0  0  0  0  0  0  0  0
    4.6352   -1.1832   -1.1043 C   0  0  0  0  0  0  0  0  0  0  0  0
    3.2515   -1.1574   -1.0356 C   0  0  0  0  0  0  0  0  0  0  0  0
    2.5100   -1.1025   -2.2184 C   0  0  0  0  0  0  0  0  0  0  0  0
    3.1923   -1.1219   -3.4661 C   0  0  0  0  0  0  0  0  0  0  0  0
    2.5696   -1.1010   -4.7453 C   0  0  0  0  0  0  0  0  0  0  0  0
    3.3183   -1.0908   -5.9228 C   0  0  0  0  0  0  0  0  0  0  0  0
    4.7012   -1.1027   -5.8538 C   0  0  0  0  0  0  0  0  0  0  0  0
    5.3234   -1.1342   -4.6045 C   0  0  0  0  0  0  0  0  0  0  0  0
    4.6044   -1.1457   -3.4202 C   0  0  0  0  0  0  0  0  0  0  0  0
    5.4674   -1.1990    0.1440 C   0  0  0  0  0  0  0  0  0  0  0  0
   -2.0447   -0.8799   -0.3915 C   0  0  0  0  0  0  0  0  0  0  0  0
   -2.9525   -1.9040   -0.0676 C   0  0  0  0  0  0  0  0  0  0  0  0
   -3.9035   -1.6618    0.9413 C   0  0  0  0  0  0  0  0  0  0  0  0
   -3.9953   -0.4294    1.5875 C   0  0  0  0  0  0  0  0  0  0  0  0
   -3.1315    0.5944    1.2301 C   0  0  0  0  0  0  0  0  0  0  0  0
   -2.1587    0.3659    0.2566 C   0  0  0  0  0  0  0  0  0  0  0  0
   -3.0735   -3.1787   -0.5461 O   0  0  0  0  0  0  0  0  0  0  0  0
   -2.1379   -3.7370   -1.4447 C   0  0  0  0  0  0  0  0  0  0  0  0
   -1.1406   -1.7508   -2.0399 H   0  0  0  0  0  0  0  0  0  0  0  0
    0.6071   -1.0553   -3.0679 H   0  0  0  0  0  0  0  0  0  0  0  0
    2.7747   -1.1918   -0.0623 H   0  0  0  0  0  0  0  0  0  0  0  0
    1.4893   -1.0841   -4.8509 H   0  0  0  0  0  0  0  0  0  0  0  0
    2.8206   -1.0688   -6.8897 H   0  0  0  0  0  0  0  0  0  0  0  0
    5.3006   -1.0881   -6.7599 H   0  0  0  0  0  0  0  0  0  0  0  0
    6.4117   -1.1434   -4.5548 H   0  0  0  0  0  0  0  0  0  0  0  0
    6.1163   -2.0806    0.1467 H   0  0  0  0  0  0  0  0  0  0  0  0
    6.0903   -0.3000    0.1817 H   0  0  0  0  0  0  0  0  0  0  0  0
    4.8509   -1.2255    1.0465 H   0  0  0  0  0  0  0  0  0  0  0  0
   -4.5796   -2.4619    1.2379 H   0  0  0  0  0  0  0  0  0  0  0  0
   -4.7385   -0.2754    2.3650 H   0  0  0  0  0  0  0  0  0  0  0  0
   -3.2049    1.5671    1.7092 H   0  0  0  0  0  0  0  0  0  0  0  0
   -1.4928    1.1851   -0.0095 H   0  0  0  0  0  0  0  0  0  0  0  0
   -2.2469   -3.2897   -2.4373 H   0  0  0  0  0  0  0  0  0  0  0  0
   -1.1134   -3.6695   -1.0663 H   0  0  0  0  0  0  0  0  0  0  0  0
   -2.3736   -4.7997   -1.5563 H   0  0  0  0  0  0  0  0  0  0  0  0
  1  2  1  0  0  0  0
  1 16  1  0  0  0  0
  1 24  1  0  0  0  0
  2  3  2  0  0  0  0
  2  4  1  0  0  0  0
  4  8  1  0  0  0  0
  4 25  1  0  0  0  0
  5  6  2  0  0  0  0
  5 14  1  0  0  0  0
  6  7  1  0  0  0  0
  6 15  1  0  0  0  0
  7  8  2  0  0  0  0
  7 26  1  0  0  0  0
  8  9  1  0  0  0  0
  9 10  1  0  0  0  0
  9 14  2  0  0  0  0
 10 11  2  0  0  0  0
 10 27  1  0  0  0  0
 11 12  1  0  0  0  0
 11 28  1  0  0  0  0
 12 13  2  0  0  0  0
 12 29  1  0  0  0  0
 13 14  1  0  0  0  0
 13 30  1  0  0  0  0
 15 31  1  0  0  0  0
 15 32  1  0  0  0  0
 15 33  1  0  0  0  0
 16 17  2  0  0  0  0
 17 18  1  0  0  0  0
 17 22  1  0  0  0  0
 18 19  2  0  0  0  0
 18 34  1  0  0  0  0
 19 20  1  0  0  0  0
 19 35  1  0  0  0  0
 20 21  2  0  0  0  0
 20 36  1  0  0  0  0
 21 16  1  0  0  0  0
 21 37  1  0  0  0  0
 22 23  1  0  0  0  0
 23 38  1  0  0  0  0
 23 39  1  0  0  0  0
 23 40  1  0  0  0  0
M  END
>  <Mol_ID>
2131

>  <Formula>
C18H16ClN3O2

>  <MolWeight>
341.79154

>  <Cat>
S8003

>  <Name>
PQ 401

>  <Synonyms>
N/A

>  <Target>
IGF-1R

>  <Form>
free base

>  <CAS>
196868-63-0

>  <URL>
http://selleckchem.com/products/pq-401.html

$$$$
