PR-619.cdx
 OpenBabel08302519553D

 19 19  0  0  0  0  0  0  0  0999 V2000
   -0.7480    1.1770    0.0446 C   0  0  0  0  0  0  0  0  0  0  0  0
   -1.3931   -0.0617    0.0556 C   0  0  0  0  0  0  0  0  0  0  0  0
   -0.7115   -1.2298   -0.0038 N   0  0  0  0  0  0  0  0  0  0  0  0
    0.6421   -1.2307   -0.0591 C   0  0  0  0  0  0  0  0  0  0  0  0
    1.3896   -0.0515   -0.0418 C   0  0  0  0  0  0  0  0  0  0  0  0
    0.6564    1.1484    0.0028 C   0  0  0  0  0  0  0  0  0  0  0  0
   -2.7599   -0.2341    0.2435 N   0  0  0  0  0  0  0  0  0  0  0  0
    1.1820   -2.4981   -0.2444 N   0  0  0  0  0  0  0  0  0  0  0  0
   -1.4576    2.8154    0.1960 S   0  0  0  0  0  0  0  0  0  0  0  0
   -2.9071    2.6553   -0.6422 C   0  0  0  0  0  0  0  0  0  0  0  0
   -3.9274    2.5436   -1.1872 N   0  0  0  0  0  0  0  0  0  0  0  0
    3.1630    0.1597   -0.1880 S   0  0  0  0  0  0  0  0  0  0  0  0
    3.7568   -1.1941    0.6245 C   0  0  0  0  0  0  0  0  0  0  0  0
    4.1623   -2.1373    1.1504 N   0  0  0  0  0  0  0  0  0  0  0  0
    1.2002    2.0943    0.0053 H   0  0  0  0  0  0  0  0  0  0  0  0
   -2.9531   -1.2302    0.1387 H   0  0  0  0  0  0  0  0  0  0  0  0
   -3.3710    0.3090   -0.3575 H   0  0  0  0  0  0  0  0  0  0  0  0
    1.9491   -2.7530    0.3695 H   0  0  0  0  0  0  0  0  0  0  0  0
    0.4171   -3.1660   -0.1496 H   0  0  0  0  0  0  0  0  0  0  0  0
  1  2  2  0  0  0  0
  1  9  1  0  0  0  0
  2  3  1  0  0  0  0
  2  7  1  0  0  0  0
  3  4  2  0  0  0  0
  4  5  1  0  0  0  0
  4  8  1  0  0  0  0
  5  6  2  0  0  0  0
  5 12  1  0  0  0  0
  6  1  1  0  0  0  0
  6 15  1  0  0  0  0
  7 16  1  0  0  0  0
  7 17  1  0  0  0  0
  8 18  1  0  0  0  0
  8 19  1  0  0  0  0
  9 10  1  0  0  0  0
 10 11  3  0  0  0  0
 12 13  1  0  0  0  0
 13 14  3  0  0  0  0
M  END
>  <Mol_ID>
2156

>  <Formula>
C7H5N5S2

>  <MolWeight>
223.2781

>  <Cat>
S7130

>  <Name>
PR-619

>  <Synonyms>
N/A

>  <Target>
Autophagy,DUB

>  <Form>
free base

>  <CAS>
2645-32-1

>  <URL>
http://selleckchem.com/products/pr-619.html

$$$$
