Pramiracetam.cdx
 OpenBabel08302521283D

 46 46  0  0  0  0  0  0  0  0999 V2000
   -0.7051   -1.2745   -1.4698 C   0  0  0  0  0  0  0  0  0  0  0  0
    0.0139    0.0717   -1.3482 C   0  0  0  0  0  0  0  0  0  0  0  0
   -0.3393    0.9427   -0.5620 O   0  0  0  0  0  0  0  0  0  0  0  0
    1.0837    0.2107   -2.2216 N   0  0  0  0  0  0  0  0  0  0  0  0
    1.9070    1.3997   -2.2423 C   0  0  0  0  0  0  0  0  0  0  0  0
    3.0009    1.3522   -3.3328 C   0  0  0  0  0  0  0  0  0  0  0  0
    2.5724    1.0685   -4.7329 N   0  0  0  0  0  0  0  0  0  0  0  0
    1.7885    2.1641   -5.3711 C   0  0  0  0  0  0  0  0  0  0  0  0
    0.3836    2.3865   -4.7961 C   0  0  0  0  0  0  0  0  0  0  0  0
    2.5315    3.5013   -5.4817 C   0  0  0  0  0  0  0  0  0  0  0  0
    3.7474    0.6439   -5.5728 C   0  0  0  0  0  0  0  0  0  0  0  0
    4.3508   -0.6971   -5.1082 C   0  0  0  0  0  0  0  0  0  0  0  0
    3.4440    0.5308   -7.0839 C   0  0  0  0  0  0  0  0  0  0  0  0
   -1.7196   -1.2847   -2.5084 N   0  0  0  0  0  0  0  0  0  0  0  0
   -1.4203   -1.4392   -3.8495 C   0  0  0  0  0  0  0  0  0  0  0  0
   -2.6724   -1.1505   -4.6396 C   0  0  0  0  0  0  0  0  0  0  0  0
   -3.7684   -1.2136   -3.5803 C   0  0  0  0  0  0  0  0  0  0  0  0
   -3.0623   -0.8103   -2.2974 C   0  0  0  0  0  0  0  0  0  0  0  0
   -0.3198   -1.6901   -4.3130 O   0  0  0  0  0  0  0  0  0  0  0  0
   -1.1648   -1.5275   -0.5115 H   0  0  0  0  0  0  0  0  0  0  0  0
    0.0373   -2.0483   -1.6992 H   0  0  0  0  0  0  0  0  0  0  0  0
    1.0815   -0.3697   -3.0620 H   0  0  0  0  0  0  0  0  0  0  0  0
    1.2676    2.2781   -2.3209 H   0  0  0  0  0  0  0  0  0  0  0  0
    2.3846    1.4839   -1.2573 H   0  0  0  0  0  0  0  0  0  0  0  0
    3.5980    2.2701   -3.2876 H   0  0  0  0  0  0  0  0  0  0  0  0
    3.6720    0.5508   -3.0028 H   0  0  0  0  0  0  0  0  0  0  0  0
    1.5580    1.8494   -6.3935 H   0  0  0  0  0  0  0  0  0  0  0  0
    0.3831    3.0180   -3.9070 H   0  0  0  0  0  0  0  0  0  0  0  0
   -0.2374    2.9116   -5.5319 H   0  0  0  0  0  0  0  0  0  0  0  0
   -0.1171    1.4382   -4.5771 H   0  0  0  0  0  0  0  0  0  0  0  0
    3.4914    3.3912   -5.9954 H   0  0  0  0  0  0  0  0  0  0  0  0
    1.9391    4.2147   -6.0648 H   0  0  0  0  0  0  0  0  0  0  0  0
    2.7174    3.9498   -4.5015 H   0  0  0  0  0  0  0  0  0  0  0  0
    4.5421    1.3957   -5.4741 H   0  0  0  0  0  0  0  0  0  0  0  0
    3.5805   -1.4043   -4.7854 H   0  0  0  0  0  0  0  0  0  0  0  0
    4.9287   -1.1816   -5.9045 H   0  0  0  0  0  0  0  0  0  0  0  0
    5.0513   -0.5433   -4.2801 H   0  0  0  0  0  0  0  0  0  0  0  0
    3.5016    1.5171   -7.5594 H   0  0  0  0  0  0  0  0  0  0  0  0
    4.1663   -0.1035   -7.6085 H   0  0  0  0  0  0  0  0  0  0  0  0
    2.4519    0.1087   -7.2757 H   0  0  0  0  0  0  0  0  0  0  0  0
   -2.5930   -0.1495   -5.0732 H   0  0  0  0  0  0  0  0  0  0  0  0
   -2.8242   -1.8950   -5.4254 H   0  0  0  0  0  0  0  0  0  0  0  0
   -4.6264   -0.5775   -3.8147 H   0  0  0  0  0  0  0  0  0  0  0  0
   -4.1317   -2.2466   -3.4965 H   0  0  0  0  0  0  0  0  0  0  0  0
   -3.0446    0.2756   -2.1648 H   0  0  0  0  0  0  0  0  0  0  0  0
   -3.5045   -1.2916   -1.4205 H   0  0  0  0  0  0  0  0  0  0  0  0
  1  2  1  0  0  0  0
  1 14  1  0  0  0  0
  1 20  1  0  0  0  0
  1 21  1  0  0  0  0
  2  3  2  0  0  0  0
  2  4  1  0  0  0  0
  4  5  1  0  0  0  0
  4 22  1  0  0  0  0
  5  6  1  0  0  0  0
  5 23  1  0  0  0  0
  5 24  1  0  0  0  0
  6  7  1  0  0  0  0
  6 25  1  0  0  0  0
  6 26  1  0  0  0  0
  7  8  1  0  0  0  0
  7 11  1  0  0  0  0
  8  9  1  0  0  0  0
  8 10  1  0  0  0  0
  8 27  1  0  0  0  0
  9 28  1  0  0  0  0
  9 29  1  0  0  0  0
  9 30  1  0  0  0  0
 10 31  1  0  0  0  0
 10 32  1  0  0  0  0
 10 33  1  0  0  0  0
 11 12  1  0  0  0  0
 11 13  1  0  0  0  0
 11 34  1  0  0  0  0
 12 35  1  0  0  0  0
 12 36  1  0  0  0  0
 12 37  1  0  0  0  0
 13 38  1  0  0  0  0
 13 39  1  0  0  0  0
 13 40  1  0  0  0  0
 14 15  1  0  0  0  0
 15 16  1  0  0  0  0
 15 19  2  0  0  0  0
 16 17  1  0  0  0  0
 16 41  1  0  0  0  0
 16 42  1  0  0  0  0
 17 18  1  0  0  0  0
 17 43  1  0  0  0  0
 17 44  1  0  0  0  0
 18 14  1  0  0  0  0
 18 45  1  0  0  0  0
 18 46  1  0  0  0  0
M  END
>  <Mol_ID>
515

>  <Formula>
C14H27N3O2

>  <MolWeight>
269.38308

>  <Cat>
S2594

>  <Name>
Pramiracetam

>  <Synonyms>
CI-879,Pramistar

>  <Target>
Others

>  <Form>
free base

>  <CAS>
68497-62-1

>  <URL>
http://selleckchem.com/products/pramiracetam.html

$$$$
