Pranoprofen.cdx
 OpenBabel08302522013D

 32 34  0  0  0  0  0  0  0  0999 V2000
    3.7031    0.5553    0.0124 C   0  0  0  0  0  0  0  0  0  0  0  0
    3.5310   -0.8191    0.0088 C   0  0  0  0  0  0  0  0  0  0  0  0
    2.3253   -1.4289   -0.0039 N   0  0  0  0  0  0  0  0  0  0  0  0
    1.2315   -0.6340   -0.0105 C   0  0  0  0  0  0  0  0  0  0  0  0
    1.3080    0.7543   -0.0077 C   0  0  0  0  0  0  0  0  0  0  0  0
    2.5697    1.3532    0.0028 C   0  0  0  0  0  0  0  0  0  0  0  0
    0.0345   -1.3160   -0.0237 O   0  0  0  0  0  0  0  0  0  0  0  0
   -1.1356   -0.5993    0.0006 C   0  0  0  0  0  0  0  0  0  0  0  0
   -1.1775    0.7926    0.0143 C   0  0  0  0  0  0  0  0  0  0  0  0
    0.0808    1.5981   -0.0249 C   0  0  0  0  0  0  0  0  0  0  0  0
   -2.3258   -1.3280    0.0086 C   0  0  0  0  0  0  0  0  0  0  0  0
   -3.5554   -0.6707    0.0258 C   0  0  0  0  0  0  0  0  0  0  0  0
   -3.6120    0.7310    0.0516 C   0  0  0  0  0  0  0  0  0  0  0  0
   -2.4092    1.4493    0.0440 C   0  0  0  0  0  0  0  0  0  0  0  0
   -4.9139    1.5149   -0.0003 C   0  0  3  0  0  0  0  0  0  0  0  0
   -5.4210    1.8139   -1.4108 C   0  0  0  0  0  0  0  0  0  0  0  0
   -4.6680    1.3672   -2.4407 O   0  0  0  0  0  0  0  0  0  0  0  0
   -6.4448    2.4543   -1.6201 O   0  0  0  0  0  0  0  0  0  0  0  0
   -6.0175    0.8807    0.8466 C   0  0  0  0  0  0  0  0  0  0  0  0
    4.6942    0.9939    0.0222 H   0  0  0  0  0  0  0  0  0  0  0  0
    4.3866   -1.4864    0.0167 H   0  0  0  0  0  0  0  0  0  0  0  0
    2.6648    2.4362    0.0029 H   0  0  0  0  0  0  0  0  0  0  0  0
    0.0791    2.2006   -0.9415 H   0  0  0  0  0  0  0  0  0  0  0  0
    0.0960    2.2691    0.8426 H   0  0  0  0  0  0  0  0  0  0  0  0
   -2.2925   -2.4171   -0.0057 H   0  0  0  0  0  0  0  0  0  0  0  0
   -4.4631   -1.2703    0.0107 H   0  0  0  0  0  0  0  0  0  0  0  0
   -2.4254    2.5411    0.0470 H   0  0  0  0  0  0  0  0  0  0  0  0
   -4.7095    2.5009    0.4428 H   0  0  0  0  0  0  0  0  0  0  0  0
   -3.8630    0.8708   -2.1958 H   0  0  0  0  0  0  0  0  0  0  0  0
   -5.6754    0.7257    1.8763 H   0  0  0  0  0  0  0  0  0  0  0  0
   -6.9024    1.5248    0.8821 H   0  0  0  0  0  0  0  0  0  0  0  0
   -6.3400   -0.0848    0.4440 H   0  0  0  0  0  0  0  0  0  0  0  0
  1  2  2  0  0  0  0
  1 20  1  0  0  0  0
  2  3  1  0  0  0  0
  2 21  1  0  0  0  0
  3  4  2  0  0  0  0
  4  5  1  0  0  0  0
  4  7  1  0  0  0  0
  5  6  2  0  0  0  0
  6  1  1  0  0  0  0
  6 22  1  0  0  0  0
  7  8  1  0  0  0  0
  8  9  2  0  0  0  0
  8 11  1  0  0  0  0
  9 10  1  0  0  0  0
 10  5  1  0  0  0  0
 10 23  1  0  0  0  0
 10 24  1  0  0  0  0
 11 12  2  0  0  0  0
 11 25  1  0  0  0  0
 12 13  1  0  0  0  0
 12 26  1  0  0  0  0
 13 14  2  0  0  0  0
 13 15  1  0  0  0  0
 14  9  1  0  0  0  0
 14 27  1  0  0  0  0
 15 16  1  0  0  0  0
 15 19  1  0  0  0  0
 15 28  1  0  0  0  0
 16 17  1  0  0  0  0
 16 18  2  0  0  0  0
 17 29  1  0  0  0  0
 19 30  1  0  0  0  0
 19 31  1  0  0  0  0
 19 32  1  0  0  0  0
M  END
>  <Mol_ID>
1121

>  <Formula>
C15H13NO3

>  <MolWeight>
255.26862

>  <Cat>
S1960

>  <Name>
Pranoprofen

>  <Synonyms>
Pyranoprofen,Pranopulin

>  <Target>
COX,PGES

>  <Form>
free base

>  <CAS>
52549-17-4

>  <URL>
http://selleckchem.com/products/pranoprofen.html

$$$$
