Prazosin
 OpenBabel08302520343D

 49 52  0  0  0  0  0  0  0  0999 V2000
    0.0073    0.4844    0.0678 C   0  0  0  0  0  0  0  0  0  0  0  0
   -0.3219   -0.8614   -0.0135 C   0  0  0  0  0  0  0  0  0  0  0  0
   -1.0117    1.4731    0.0826 C   0  0  0  0  0  0  0  0  0  0  0  0
    1.3685    0.7613    0.1300 C   0  0  0  0  0  0  0  0  0  0  0  0
    0.6272   -1.8127   -0.0646 N   0  0  0  0  0  0  0  0  0  0  0  0
   -1.6725   -1.1905   -0.0454 C   0  0  0  0  0  0  0  0  0  0  0  0
   -2.3650    1.1343    0.0241 C   0  0  0  0  0  0  0  0  0  0  0  0
    2.3139   -0.1803    0.0887 N   0  0  0  0  0  0  0  0  0  0  0  0
    1.8518    2.0690    0.2799 N   0  0  0  0  0  0  0  0  0  0  0  0
    1.9236   -1.4549   -0.0220 C   0  0  0  0  0  0  0  0  0  0  0  0
   -2.7036   -0.2232   -0.0215 C   0  0  0  0  0  0  0  0  0  0  0  0
   -3.3642    2.0657    0.0043 O   0  0  0  0  0  0  0  0  0  0  0  0
    2.8897   -2.4159   -0.1450 N   0  0  0  0  0  0  0  0  0  0  0  0
   -3.9568   -0.7836   -0.0484 O   0  0  0  0  0  0  0  0  0  0  0  0
   -3.0231    3.4454    0.0335 C   0  0  0  0  0  0  0  0  0  0  0  0
    4.3218   -2.1170   -0.0492 C   0  0  0  0  0  0  0  0  0  0  0  0
    2.5304   -3.8218   -0.2246 C   0  0  0  0  0  0  0  0  0  0  0  0
   -5.0912    0.0727   -0.0113 C   0  0  0  0  0  0  0  0  0  0  0  0
    5.1002   -2.8245   -1.1854 C   0  0  0  0  0  0  0  0  0  0  0  0
    3.2602   -4.4526   -1.4158 C   0  0  0  0  0  0  0  0  0  0  0  0
    4.7153   -4.2376   -1.3316 N   0  0  0  0  0  0  0  0  0  0  0  0
    5.6878   -5.2419   -1.3062 C   0  0  0  0  0  0  0  0  0  0  0  0
    5.2684   -6.6169   -1.5344 C   0  0  0  0  0  0  0  0  0  0  0  0
    6.8669   -4.9715   -1.0661 O   0  0  0  0  0  0  0  0  0  0  0  0
    5.7634   -7.8174   -1.0543 C   0  0  0  0  0  0  0  0  0  0  0  0
    4.2408   -6.8823   -2.4012 O   0  0  0  0  0  0  0  0  0  0  0  0
    4.9425   -8.8434   -1.5896 C   0  0  0  0  0  0  0  0  0  0  0  0
    4.0137   -8.2159   -2.3809 C   0  0  0  0  0  0  0  0  0  0  0  0
   -0.7054    2.5126    0.1388 H   0  0  0  0  0  0  0  0  0  0  0  0
   -1.9486   -2.2416   -0.0906 H   0  0  0  0  0  0  0  0  0  0  0  0
    1.4874    2.6871   -0.4335 H   0  0  0  0  0  0  0  0  0  0  0  0
    2.8663    2.0070    0.2444 H   0  0  0  0  0  0  0  0  0  0  0  0
   -2.4942    3.7021    0.9568 H   0  0  0  0  0  0  0  0  0  0  0  0
   -2.4437    3.7290   -0.8513 H   0  0  0  0  0  0  0  0  0  0  0  0
   -3.9558    4.0170    0.0161 H   0  0  0  0  0  0  0  0  0  0  0  0
    4.5441   -1.0454   -0.0965 H   0  0  0  0  0  0  0  0  0  0  0  0
    4.6902   -2.4816    0.9175 H   0  0  0  0  0  0  0  0  0  0  0  0
    2.8400   -4.3251    0.7005 H   0  0  0  0  0  0  0  0  0  0  0  0
    1.4584   -4.0063   -0.3475 H   0  0  0  0  0  0  0  0  0  0  0  0
   -5.1126    0.6770    0.9021 H   0  0  0  0  0  0  0  0  0  0  0  0
   -5.1488    0.6894   -0.9144 H   0  0  0  0  0  0  0  0  0  0  0  0
   -5.9864   -0.5567    0.0043 H   0  0  0  0  0  0  0  0  0  0  0  0
    4.8698   -2.3388   -2.1421 H   0  0  0  0  0  0  0  0  0  0  0  0
    6.1769   -2.7153   -1.0193 H   0  0  0  0  0  0  0  0  0  0  0  0
    2.9275   -4.0024   -2.3589 H   0  0  0  0  0  0  0  0  0  0  0  0
    2.9741   -5.4986   -1.4172 H   0  0  0  0  0  0  0  0  0  0  0  0
    6.6007   -7.9285   -0.3785 H   0  0  0  0  0  0  0  0  0  0  0  0
    5.0145   -9.9085   -1.4209 H   0  0  0  0  0  0  0  0  0  0  0  0
    3.1757   -8.5506   -2.9764 H   0  0  0  0  0  0  0  0  0  0  0  0
  1  2  1  0  0  0  0
  1  3  2  0  0  0  0
  1  4  1  0  0  0  0
  2  5  1  0  0  0  0
  2  6  2  0  0  0  0
  3  7  1  0  0  0  0
  3 29  1  0  0  0  0
  4  8  2  0  0  0  0
  4  9  1  0  0  0  0
  5 10  2  0  0  0  0
  6 11  1  0  0  0  0
  6 30  1  0  0  0  0
  7 12  1  0  0  0  0
  7 11  2  0  0  0  0
  8 10  1  0  0  0  0
  9 31  1  0  0  0  0
  9 32  1  0  0  0  0
 10 13  1  0  0  0  0
 11 14  1  0  0  0  0
 12 15  1  0  0  0  0
 13 16  1  0  0  0  0
 13 17  1  0  0  0  0
 14 18  1  0  0  0  0
 15 33  1  0  0  0  0
 15 34  1  0  0  0  0
 15 35  1  0  0  0  0
 16 19  1  0  0  0  0
 16 36  1  0  0  0  0
 16 37  1  0  0  0  0
 17 20  1  0  0  0  0
 17 38  1  0  0  0  0
 17 39  1  0  0  0  0
 18 40  1  0  0  0  0
 18 41  1  0  0  0  0
 18 42  1  0  0  0  0
 19 21  1  0  0  0  0
 19 43  1  0  0  0  0
 19 44  1  0  0  0  0
 20 21  1  0  0  0  0
 20 45  1  0  0  0  0
 20 46  1  0  0  0  0
 21 22  1  0  0  0  0
 22 23  1  0  0  0  0
 22 24  2  0  0  0  0
 23 25  2  0  0  0  0
 23 26  1  0  0  0  0
 25 27  1  0  0  0  0
 25 47  1  0  0  0  0
 26 28  1  0  0  0  0
 27 28  2  0  0  0  0
 27 48  1  0  0  0  0
 28 49  1  0  0  0  0
M  END
>  <Mol_ID>
3418

>  <Formula>
C19H21N5O4

>  <MolWeight>
383.40114

>  <Cat>
S5780

>  <Name>
Prazosin

>  <Synonyms>
N/A

>  <Target>
Adrenergic Receptor

>  <Form>
Free Base

>  <CAS>
19216-56-9

>  <URL>
http://www.selleckchem.com/products/prazosin.html

$$$$
