PRE-084 hydrochloride
 OpenBabel08302521303D

 50 52  0  0  0  0  0  0  0  0999 V2000
   -1.1668   -0.3439    0.9918 C   0  0  0  0  0  0  0  0  0  0  0  0
   -0.6304   -1.7412    0.6373 C   0  0  0  0  0  0  0  0  0  0  0  0
    0.8540   -1.9107    0.1646 C   0  0  0  0  0  0  0  0  0  0  0  0
    1.7274   -0.8756    0.9385 C   0  0  0  0  0  0  0  0  0  0  0  0
    1.2014    0.5536    0.9656 C   0  0  0  0  0  0  0  0  0  0  0  0
   -0.1759    0.6416    1.5889 C   0  0  0  0  0  0  0  0  0  0  0  0
    1.3196   -3.3666    0.5300 C   0  0  0  0  0  0  0  0  0  0  0  0
    0.9714   -1.7092   -1.4248 C   0  0  0  0  0  0  0  0  0  0  0  0
    0.5190   -4.4795    0.1626 C   0  0  0  0  0  0  0  0  0  0  0  0
    0.9191   -5.7877    0.4203 C   0  0  0  0  0  0  0  0  0  0  0  0
    2.1087   -6.0308    1.0929 C   0  0  0  0  0  0  0  0  0  0  0  0
    2.8914   -4.9617    1.5106 C   0  0  0  0  0  0  0  0  0  0  0  0
    2.5031   -3.6494    1.2328 C   0  0  0  0  0  0  0  0  0  0  0  0
    0.6430   -2.8440   -2.1077 O   0  0  0  0  0  0  0  0  0  0  0  0
    1.2725   -0.6615   -1.9833 O   0  0  0  0  0  0  0  0  0  0  0  0
    0.1620   -2.8944   -3.4781 C   0  0  0  0  0  0  0  0  0  0  0  0
    1.0121   -2.4237   -4.6941 C   0  0  0  0  0  0  0  0  0  0  0  0
    2.1769   -3.2650   -5.0373 N   0  0  0  0  0  0  0  0  0  0  0  0
    3.3119   -3.0288   -4.1261 C   0  0  0  0  0  0  0  0  0  0  0  0
    4.0436   -1.7057   -4.3993 C   0  0  0  0  0  0  0  0  0  0  0  0
    4.6056   -1.7159   -5.7171 O   0  0  0  0  0  0  0  0  0  0  0  0
    3.5714   -1.8553   -6.6974 C   0  0  0  0  0  0  0  0  0  0  0  0
    2.6629   -3.0772   -6.4332 C   0  0  0  0  0  0  0  0  0  0  0  0
   -1.6160    0.1032    0.0988 H   0  0  0  0  0  0  0  0  0  0  0  0
   -1.9939   -0.4653    1.7043 H   0  0  0  0  0  0  0  0  0  0  0  0
   -0.7806   -2.3521    1.5417 H   0  0  0  0  0  0  0  0  0  0  0  0
   -1.3082   -2.1598   -0.1169 H   0  0  0  0  0  0  0  0  0  0  0  0
    1.8038   -1.1811    1.9935 H   0  0  0  0  0  0  0  0  0  0  0  0
    2.7471   -0.8599    0.5377 H   0  0  0  0  0  0  0  0  0  0  0  0
    1.8901    1.1719    1.5575 H   0  0  0  0  0  0  0  0  0  0  0  0
    1.1898    0.9797   -0.0420 H   0  0  0  0  0  0  0  0  0  0  0  0
   -0.5633    1.6612    1.4644 H   0  0  0  0  0  0  0  0  0  0  0  0
   -0.1009    0.4844    2.6724 H   0  0  0  0  0  0  0  0  0  0  0  0
   -0.4205   -4.3327   -0.3637 H   0  0  0  0  0  0  0  0  0  0  0  0
    0.3014   -6.6189    0.0837 H   0  0  0  0  0  0  0  0  0  0  0  0
    2.4295   -7.0529    1.2844 H   0  0  0  0  0  0  0  0  0  0  0  0
    3.8152   -5.1463    2.0542 H   0  0  0  0  0  0  0  0  0  0  0  0
    3.1620   -2.8562    1.5869 H   0  0  0  0  0  0  0  0  0  0  0  0
   -0.0791   -3.9528   -3.6414 H   0  0  0  0  0  0  0  0  0  0  0  0
   -0.8018   -2.3704   -3.5004 H   0  0  0  0  0  0  0  0  0  0  0  0
    0.3185   -2.5044   -5.5444 H   0  0  0  0  0  0  0  0  0  0  0  0
    1.2673   -1.3648   -4.6112 H   0  0  0  0  0  0  0  0  0  0  0  0
    4.0218   -3.8531   -4.2718 H   0  0  0  0  0  0  0  0  0  0  0  0
    2.9914   -3.0819   -3.0833 H   0  0  0  0  0  0  0  0  0  0  0  0
    3.3884   -0.8342   -4.2928 H   0  0  0  0  0  0  0  0  0  0  0  0
    4.8657   -1.5859   -3.6883 H   0  0  0  0  0  0  0  0  0  0  0  0
    4.0688   -1.9744   -7.6685 H   0  0  0  0  0  0  0  0  0  0  0  0
    2.9925   -0.9269   -6.7399 H   0  0  0  0  0  0  0  0  0  0  0  0
    3.2531   -3.9721   -6.6787 H   0  0  0  0  0  0  0  0  0  0  0  0
    1.8338   -3.0758   -7.1502 H   0  0  0  0  0  0  0  0  0  0  0  0
  1  2  1  0  0  0  0
  1 24  1  0  0  0  0
  1 25  1  0  0  0  0
  2  3  1  0  0  0  0
  2 26  1  0  0  0  0
  2 27  1  0  0  0  0
  3  4  1  0  0  0  0
  3  7  1  0  0  0  0
  3  8  1  0  0  0  0
  4  5  1  0  0  0  0
  4 28  1  0  0  0  0
  4 29  1  0  0  0  0
  5  6  1  0  0  0  0
  5 30  1  0  0  0  0
  5 31  1  0  0  0  0
  6  1  1  0  0  0  0
  6 32  1  0  0  0  0
  6 33  1  0  0  0  0
  7  9  2  0  0  0  0
  8 14  1  0  0  0  0
  8 15  2  0  0  0  0
  9 10  1  0  0  0  0
  9 34  1  0  0  0  0
 10 11  2  0  0  0  0
 10 35  1  0  0  0  0
 11 12  1  0  0  0  0
 11 36  1  0  0  0  0
 12 13  2  0  0  0  0
 12 37  1  0  0  0  0
 13  7  1  0  0  0  0
 13 38  1  0  0  0  0
 14 16  1  0  0  0  0
 16 17  1  0  0  0  0
 16 39  1  0  0  0  0
 16 40  1  0  0  0  0
 17 18  1  0  0  0  0
 17 41  1  0  0  0  0
 17 42  1  0  0  0  0
 18 19  1  0  0  0  0
 19 20  1  0  0  0  0
 19 43  1  0  0  0  0
 19 44  1  0  0  0  0
 20 21  1  0  0  0  0
 20 45  1  0  0  0  0
 20 46  1  0  0  0  0
 21 22  1  0  0  0  0
 22 23  1  0  0  0  0
 22 47  1  0  0  0  0
 22 48  1  0  0  0  0
 23 18  1  0  0  0  0
 23 49  1  0  0  0  0
 23 50  1  0  0  0  0
M  END
>  <Mol_ID>
5536

>  <Formula>
C19H28ClNO3

>  <MolWeight>
353.88352

>  <Cat>
S6950

>  <Name>
PRE-084 hydrochloride

>  <Synonyms>
PRE-084 HCl

>  <Target>
Sigma Receptor

>  <Form>
Hydrochloride

>  <CAS>
75136-54-8

>  <URL>
https://www.selleckchem.com/products/pre-084-hydrochloride.html

$$$$
