Procarbazine Hydrochloride.cdx
 OpenBabel08302521383D

 35 35  0  0  0  0  0  0  0  0999 V2000
    1.4297   -0.2066    0.0561 C   0  0  0  0  0  0  0  0  0  0  0  0
    0.5441   -1.2910    0.0254 C   0  0  0  0  0  0  0  0  0  0  0  0
   -0.8353   -1.0814   -0.0550 C   0  0  0  0  0  0  0  0  0  0  0  0
   -1.3596    0.2193   -0.0798 C   0  0  0  0  0  0  0  0  0  0  0  0
   -0.4672    1.3034   -0.0403 C   0  0  0  0  0  0  0  0  0  0  0  0
    0.9185    1.0954    0.0201 C   0  0  0  0  0  0  0  0  0  0  0  0
    2.8866   -0.5035    0.1685 C   0  0  0  0  0  0  0  0  0  0  0  0
    3.7612    0.3899   -0.4160 N   0  0  0  0  0  0  0  0  0  0  0  0
    5.2075    0.1994   -0.3500 C   0  0  0  0  0  0  0  0  0  0  0  0
    5.8796    0.8019   -1.5807 C   0  0  0  0  0  0  0  0  0  0  0  0
    5.7720    0.8176    0.9271 C   0  0  0  0  0  0  0  0  0  0  0  0
    3.2539   -1.5288    0.7345 O   0  0  0  0  0  0  0  0  0  0  0  0
   -2.8540    0.4546   -0.1782 C   0  0  0  0  0  0  0  0  0  0  0  0
   -3.5840   -0.1376    0.9557 N   0  0  0  0  0  0  0  0  0  0  0  0
   -5.0102    0.1084    0.7911 N   0  0  0  0  0  0  0  0  0  0  0  0
   -5.7182   -0.5049    1.9169 C   0  0  0  0  0  0  0  0  0  0  0  0
    0.9293   -2.3087    0.0644 H   0  0  0  0  0  0  0  0  0  0  0  0
   -1.4951   -1.9449   -0.0894 H   0  0  0  0  0  0  0  0  0  0  0  0
   -0.8491    2.3223   -0.0464 H   0  0  0  0  0  0  0  0  0  0  0  0
    1.5732    1.9590    0.0754 H   0  0  0  0  0  0  0  0  0  0  0  0
    3.4039    1.2138   -0.8817 H   0  0  0  0  0  0  0  0  0  0  0  0
    5.4125   -0.8765   -0.3342 H   0  0  0  0  0  0  0  0  0  0  0  0
    5.7099    1.8824   -1.6383 H   0  0  0  0  0  0  0  0  0  0  0  0
    6.9602    0.6270   -1.5618 H   0  0  0  0  0  0  0  0  0  0  0  0
    5.4805    0.3550   -2.4976 H   0  0  0  0  0  0  0  0  0  0  0  0
    5.3014    0.3844    1.8156 H   0  0  0  0  0  0  0  0  0  0  0  0
    6.8519    0.6445    0.9990 H   0  0  0  0  0  0  0  0  0  0  0  0
    5.5984    1.8983    0.9535 H   0  0  0  0  0  0  0  0  0  0  0  0
   -3.0488    1.5344   -0.2027 H   0  0  0  0  0  0  0  0  0  0  0  0
   -3.2069    0.0400   -1.1314 H   0  0  0  0  0  0  0  0  0  0  0  0
   -3.3983   -1.1445    0.9504 H   0  0  0  0  0  0  0  0  0  0  0  0
   -5.2059    1.1147    0.8169 H   0  0  0  0  0  0  0  0  0  0  0  0
   -5.3923   -0.0829    2.8741 H   0  0  0  0  0  0  0  0  0  0  0  0
   -6.7921   -0.3194    1.8140 H   0  0  0  0  0  0  0  0  0  0  0  0
   -5.5721   -1.5900    1.9343 H   0  0  0  0  0  0  0  0  0  0  0  0
  1  2  2  0  0  0  0
  1  7  1  0  0  0  0
  2  3  1  0  0  0  0
  2 17  1  0  0  0  0
  3  4  2  0  0  0  0
  3 18  1  0  0  0  0
  4  5  1  0  0  0  0
  4 13  1  0  0  0  0
  5  6  2  0  0  0  0
  5 19  1  0  0  0  0
  6  1  1  0  0  0  0
  6 20  1  0  0  0  0
  7  8  1  0  0  0  0
  7 12  2  0  0  0  0
  8  9  1  0  0  0  0
  8 21  1  0  0  0  0
  9 10  1  0  0  0  0
  9 11  1  0  0  0  0
  9 22  1  0  0  0  0
 10 23  1  0  0  0  0
 10 24  1  0  0  0  0
 10 25  1  0  0  0  0
 11 26  1  0  0  0  0
 11 27  1  0  0  0  0
 11 28  1  0  0  0  0
 13 14  1  0  0  0  0
 13 29  1  0  0  0  0
 13 30  1  0  0  0  0
 14 15  1  0  0  0  0
 14 31  1  0  0  0  0
 15 16  1  0  0  0  0
 15 32  1  0  0  0  0
 16 33  1  0  0  0  0
 16 34  1  0  0  0  0
 16 35  1  0  0  0  0
M  END
>  <Mol_ID>
7710

>  <Formula>
C12H20ClN3O

>  <MolWeight>
257.7597

>  <Cat>
S1995

>  <Name>
Procarbazine HCl

>  <Synonyms>
NSC-77213 HCl

>  <Target>
DNA/RNA Synthesis

>  <Form>
Hydrochloride

>  <CAS>
366-70-1

>  <URL>
http://selleckchem.com/products/procarbazine-hydrochloride-matulane.html

$$$$
