procyclidine hydrochloride.cdx
 OpenBabel08302519583D

 50 52  0  0  0  0  0  0  0  0999 V2000
   -1.7580    0.0029   -0.5108 C   0  0  0  0  0  0  0  0  0  0  0  0
   -1.1505   -1.3194   -0.0376 C   0  0  0  0  0  0  0  0  0  0  0  0
    0.3702   -1.4254   -0.2362 C   0  0  0  0  0  0  0  0  0  0  0  0
    1.1779   -0.1842    0.2550 C   0  0  0  0  0  0  0  0  0  0  0  0
    0.5342    1.0015   -0.5120 C   0  0  0  0  0  0  0  0  0  0  0  0
   -0.9256    1.2306   -0.1702 C   0  0  0  0  0  0  0  0  0  0  0  0
    1.3106   -0.1084    1.8493 C   0  0  3  0  0  0  0  0  0  0  0  0
    1.9718   -1.4228    2.4245 C   0  0  0  0  0  0  0  0  0  0  0  0
    1.9674    1.1426    2.4902 C   0  0  0  0  0  0  0  0  0  0  0  0
    2.5089    2.2131    1.7614 C   0  0  0  0  0  0  0  0  0  0  0  0
    2.9561    3.3868    2.3878 C   0  0  0  0  0  0  0  0  0  0  0  0
    2.9475    3.4973    3.7710 C   0  0  0  0  0  0  0  0  0  0  0  0
    2.4817    2.4334    4.5303 C   0  0  0  0  0  0  0  0  0  0  0  0
    1.9954    1.2831    3.8990 C   0  0  0  0  0  0  0  0  0  0  0  0
   -0.0396   -0.1451    2.3608 O   0  0  0  0  0  0  0  0  0  0  0  0
    3.3757   -1.7567    1.8928 C   0  0  0  0  0  0  0  0  0  0  0  0
    4.0184   -2.9799    2.4041 N   0  0  0  0  0  0  0  0  0  0  0  0
    3.3140   -4.2348    2.1454 C   0  0  0  0  0  0  0  0  0  0  0  0
    2.7359   -4.6715    3.4791 C   0  0  0  0  0  0  0  0  0  0  0  0
    3.7292   -4.1428    4.4939 C   0  0  0  0  0  0  0  0  0  0  0  0
    4.3958   -2.9481    3.8184 C   0  0  0  0  0  0  0  0  0  0  0  0
   -1.8793   -0.0396   -1.6005 H   0  0  0  0  0  0  0  0  0  0  0  0
   -2.7644    0.1209   -0.0930 H   0  0  0  0  0  0  0  0  0  0  0  0
   -1.4052   -1.4803    1.0144 H   0  0  0  0  0  0  0  0  0  0  0  0
   -1.6374   -2.1405   -0.5769 H   0  0  0  0  0  0  0  0  0  0  0  0
    0.7341   -2.3522    0.2154 H   0  0  0  0  0  0  0  0  0  0  0  0
    0.5558   -1.5480   -1.3126 H   0  0  0  0  0  0  0  0  0  0  0  0
    2.1969   -0.2715   -0.1444 H   0  0  0  0  0  0  0  0  0  0  0  0
    1.0729    1.9395   -0.4147 H   0  0  0  0  0  0  0  0  0  0  0  0
    0.5994    0.7791   -1.5895 H   0  0  0  0  0  0  0  0  0  0  0  0
   -1.2987    2.0886   -0.7429 H   0  0  0  0  0  0  0  0  0  0  0  0
   -1.0336    1.5043    0.8834 H   0  0  0  0  0  0  0  0  0  0  0  0
    2.0027   -1.3781    3.5188 H   0  0  0  0  0  0  0  0  0  0  0  0
    1.2961   -2.2645    2.2340 H   0  0  0  0  0  0  0  0  0  0  0  0
    2.6018    2.1835    0.6847 H   0  0  0  0  0  0  0  0  0  0  0  0
    3.3119    4.2198    1.7831 H   0  0  0  0  0  0  0  0  0  0  0  0
    3.3064    4.4017    4.2545 H   0  0  0  0  0  0  0  0  0  0  0  0
    2.4824    2.5002    5.6145 H   0  0  0  0  0  0  0  0  0  0  0  0
    1.6193    0.4934    4.5468 H   0  0  0  0  0  0  0  0  0  0  0  0
   -0.0470    0.1300    3.2871 H   0  0  0  0  0  0  0  0  0  0  0  0
    3.3385   -1.8543    0.8028 H   0  0  0  0  0  0  0  0  0  0  0  0
    4.0489   -0.9134    2.0874 H   0  0  0  0  0  0  0  0  0  0  0  0
    4.0529   -4.9783    1.8153 H   0  0  0  0  0  0  0  0  0  0  0  0
    2.5538   -4.1686    1.3616 H   0  0  0  0  0  0  0  0  0  0  0  0
    1.7554   -4.2130    3.6428 H   0  0  0  0  0  0  0  0  0  0  0  0
    2.6176   -5.7583    3.5474 H   0  0  0  0  0  0  0  0  0  0  0  0
    3.2337   -3.8620    5.4289 H   0  0  0  0  0  0  0  0  0  0  0  0
    4.4748   -4.9121    4.7287 H   0  0  0  0  0  0  0  0  0  0  0  0
    4.1181   -2.0162    4.3198 H   0  0  0  0  0  0  0  0  0  0  0  0
    5.4846   -3.0430    3.9051 H   0  0  0  0  0  0  0  0  0  0  0  0
  1  2  1  0  0  0  0
  1 22  1  0  0  0  0
  1 23  1  0  0  0  0
  2  3  1  0  0  0  0
  2 24  1  0  0  0  0
  2 25  1  0  0  0  0
  3  4  1  0  0  0  0
  3 26  1  0  0  0  0
  3 27  1  0  0  0  0
  4  5  1  0  0  0  0
  4  7  1  0  0  0  0
  4 28  1  0  0  0  0
  5  6  1  0  0  0  0
  5 29  1  0  0  0  0
  5 30  1  0  0  0  0
  6  1  1  0  0  0  0
  6 31  1  0  0  0  0
  6 32  1  0  0  0  0
  7  8  1  0  0  0  0
  7  9  1  0  0  0  0
  7 15  1  0  0  0  0
  8 16  1  0  0  0  0
  8 33  1  0  0  0  0
  8 34  1  0  0  0  0
  9 10  2  0  0  0  0
 10 11  1  0  0  0  0
 10 35  1  0  0  0  0
 11 12  2  0  0  0  0
 11 36  1  0  0  0  0
 12 13  1  0  0  0  0
 12 37  1  0  0  0  0
 13 14  2  0  0  0  0
 13 38  1  0  0  0  0
 14  9  1  0  0  0  0
 14 39  1  0  0  0  0
 15 40  1  0  0  0  0
 16 17  1  0  0  0  0
 16 41  1  0  0  0  0
 16 42  1  0  0  0  0
 17 18  1  0  0  0  0
 18 19  1  0  0  0  0
 18 43  1  0  0  0  0
 18 44  1  0  0  0  0
 19 20  1  0  0  0  0
 19 45  1  0  0  0  0
 19 46  1  0  0  0  0
 20 21  1  0  0  0  0
 20 47  1  0  0  0  0
 20 48  1  0  0  0  0
 21 17  1  0  0  0  0
 21 49  1  0  0  0  0
 21 50  1  0  0  0  0
M  END
>  <Mol_ID>
2310

>  <Formula>
C19H30ClNO

>  <MolWeight>
323.9006

>  <Cat>
S4349

>  <Name>
Procyclidine HCl

>  <Synonyms>
N/A

>  <Target>
NMDAR

>  <Form>
hydrochloride

>  <CAS>
1508-76-5

>  <URL>
http://www.selleckchem.com/products/procyclidine-hcl.html

$$$$
