procodazole.cdx
 OpenBabel08302519583D

 24 25  0  0  0  0  0  0  0  0999 V2000
   -0.1791   -0.7375   -0.0735 C   0  0  0  0  0  0  0  0  0  0  0  0
   -0.2302    0.6512   -0.1255 C   0  0  0  0  0  0  0  0  0  0  0  0
    0.9646    1.3848   -0.1229 C   0  0  0  0  0  0  0  0  0  0  0  0
    2.1757    0.6869   -0.0562 C   0  0  0  0  0  0  0  0  0  0  0  0
    2.1980   -0.7067    0.0021 C   0  0  0  0  0  0  0  0  0  0  0  0
    1.0143   -1.4560   -0.0056 C   0  0  0  0  0  0  0  0  0  0  0  0
   -1.4950   -1.1274   -0.0882 N   0  0  0  0  0  0  0  0  0  0  0  0
   -2.2705    0.0037   -0.1171 C   0  0  0  0  0  0  0  0  0  0  0  0
   -1.5314    1.0935   -0.1525 N   0  0  0  0  0  0  0  0  0  0  0  0
   -3.7523    0.0071    0.0010 C   0  0  0  0  0  0  0  0  0  0  0  0
   -4.1872    0.1892    1.4488 C   0  0  0  0  0  0  0  0  0  0  0  0
   -3.8994    1.5054    2.1439 C   0  0  0  0  0  0  0  0  0  0  0  0
   -3.1048    2.3980    1.5328 O   0  0  0  0  0  0  0  0  0  0  0  0
   -4.3831    1.7467    3.2459 O   0  0  0  0  0  0  0  0  0  0  0  0
    0.9420    2.4684   -0.1583 H   0  0  0  0  0  0  0  0  0  0  0  0
    3.1127    1.2432   -0.0444 H   0  0  0  0  0  0  0  0  0  0  0  0
    3.1554   -1.2239    0.0587 H   0  0  0  0  0  0  0  0  0  0  0  0
    1.0357   -2.5407    0.0416 H   0  0  0  0  0  0  0  0  0  0  0  0
   -1.8272   -2.0798   -0.0373 H   0  0  0  0  0  0  0  0  0  0  0  0
   -4.1605    0.8141   -0.6190 H   0  0  0  0  0  0  0  0  0  0  0  0
   -4.1588   -0.9332   -0.3903 H   0  0  0  0  0  0  0  0  0  0  0  0
   -5.2795    0.0779    1.4714 H   0  0  0  0  0  0  0  0  0  0  0  0
   -3.7578   -0.6063    2.0692 H   0  0  0  0  0  0  0  0  0  0  0  0
   -2.5787    2.0821    0.7587 H   0  0  0  0  0  0  0  0  0  0  0  0
  1  2  1  0  0  0  0
  1  7  1  0  0  0  0
  2  3  2  0  0  0  0
  3  4  1  0  0  0  0
  3 15  1  0  0  0  0
  4  5  2  0  0  0  0
  4 16  1  0  0  0  0
  5  6  1  0  0  0  0
  5 17  1  0  0  0  0
  6  1  2  0  0  0  0
  6 18  1  0  0  0  0
  7  8  1  0  0  0  0
  7 19  1  0  0  0  0
  8  9  2  0  0  0  0
  8 10  1  0  0  0  0
  9  2  1  0  0  0  0
 10 11  1  0  0  0  0
 10 20  1  0  0  0  0
 10 21  1  0  0  0  0
 11 12  1  0  0  0  0
 11 22  1  0  0  0  0
 11 23  1  0  0  0  0
 12 13  1  0  0  0  0
 12 14  2  0  0  0  0
 13 24  1  0  0  0  0
M  END
>  <Mol_ID>
2309

>  <Formula>
C10H10N2O2

>  <MolWeight>
190.1986

>  <Cat>
S4408

>  <Name>
Procodazole

>  <Synonyms>
Propazol, 2-Benzimidazolepropionic acid, 3-(1H-benzimidazole-2) propanoic acid

>  <Target>
Antiviral,Bacterial

>  <Form>
Free Base

>  <CAS>
23249-97-0

>  <URL>
http://www.selleckchem.com/products/procodazole.html

$$$$
