Propargyl-PEG4-NHS ester
 OpenBabel08302521353D

 48 48  0  0  0  0  0  0  0  0999 V2000
   -3.5257   -5.5475    1.2887 O   0  0  0  0  0  0  0  0  0  0  0  0
   -3.4600   -5.3440    2.6294 C   0  0  0  0  0  0  0  0  0  0  0  0
   -2.2013   -4.6198    3.0483 C   0  0  0  0  0  0  0  0  0  0  0  0
   -4.3647   -5.6228    3.4133 O   0  0  0  0  0  0  0  0  0  0  0  0
   -1.1520   -4.4101    1.9589 C   0  0  0  0  0  0  0  0  0  0  0  0
   -1.4453   -3.4143    0.9759 O   0  0  0  0  0  0  0  0  0  0  0  0
   -1.8395   -2.0934    1.3982 C   0  0  0  0  0  0  0  0  0  0  0  0
   -0.8875   -1.3745    2.3638 C   0  0  0  0  0  0  0  0  0  0  0  0
   -1.0956    0.0034    2.6935 O   0  0  0  0  0  0  0  0  0  0  0  0
   -2.1959    0.4666    3.4828 C   0  0  0  0  0  0  0  0  0  0  0  0
   -2.4314   -0.0137    4.9438 C   0  0  0  0  0  0  0  0  0  0  0  0
   -1.4649    0.1255    5.9868 O   0  0  0  0  0  0  0  0  0  0  0  0
   -0.8989    1.3618    6.4212 C   0  0  0  0  0  0  0  0  0  0  0  0
   -1.7109    2.4383    7.1876 C   0  0  0  0  0  0  0  0  0  0  0  0
   -2.3463    2.0464    8.4029 O   0  0  0  0  0  0  0  0  0  0  0  0
   -1.5444    1.7970    9.5782 C   0  0  0  0  0  0  0  0  0  0  0  0
   -2.5713    1.5855   10.6787 C   0  0  0  0  0  0  0  0  0  0  0  0
   -3.4522    1.4041   11.6227 C   0  0  0  0  0  0  0  0  0  0  0  0
   -5.0920   -3.2060    1.6072 O   0  0  0  0  0  0  0  0  0  0  0  0
   -4.8976   -7.2382   -0.5822 O   0  0  0  0  0  0  0  0  0  0  0  0
   -4.7694   -5.3391    0.7459 N   0  0  0  0  0  0  0  0  0  0  0  0
   -5.4013   -4.1471    0.9067 C   0  0  0  0  0  0  0  0  0  0  0  0
   -5.3047   -6.1495   -0.1915 C   0  0  0  0  0  0  0  0  0  0  0  0
   -6.5660   -4.1191   -0.0440 C   0  0  0  0  0  0  0  0  0  0  0  0
   -6.5128   -5.4542   -0.7676 C   0  0  0  0  0  0  0  0  0  0  0  0
   -2.5089   -3.6579    3.4649 H   0  0  0  0  0  0  0  0  0  0  0  0
   -1.7539   -5.2225    3.8455 H   0  0  0  0  0  0  0  0  0  0  0  0
   -0.1864   -4.1633    2.4186 H   0  0  0  0  0  0  0  0  0  0  0  0
   -0.9828   -5.3577    1.4146 H   0  0  0  0  0  0  0  0  0  0  0  0
   -1.9185   -1.5163    0.4577 H   0  0  0  0  0  0  0  0  0  0  0  0
   -2.8625   -2.1434    1.7817 H   0  0  0  0  0  0  0  0  0  0  0  0
   -0.7558   -1.9423    3.2835 H   0  0  0  0  0  0  0  0  0  0  0  0
    0.0877   -1.3883    1.8684 H   0  0  0  0  0  0  0  0  0  0  0  0
   -2.0768    1.5555    3.5193 H   0  0  0  0  0  0  0  0  0  0  0  0
   -3.1149    0.2814    2.9095 H   0  0  0  0  0  0  0  0  0  0  0  0
   -3.3703    0.4272    5.2991 H   0  0  0  0  0  0  0  0  0  0  0  0
   -2.6053   -1.0942    4.8809 H   0  0  0  0  0  0  0  0  0  0  0  0
   -0.1196    1.0508    7.1257 H   0  0  0  0  0  0  0  0  0  0  0  0
   -0.3909    1.8309    5.5744 H   0  0  0  0  0  0  0  0  0  0  0  0
   -1.0525    3.2908    7.4097 H   0  0  0  0  0  0  0  0  0  0  0  0
   -2.5026    2.8251    6.5357 H   0  0  0  0  0  0  0  0  0  0  0  0
   -0.9906    0.8693    9.4090 H   0  0  0  0  0  0  0  0  0  0  0  0
   -0.8670    2.6256    9.7991 H   0  0  0  0  0  0  0  0  0  0  0  0
   -4.1786    1.2558   12.3876 H   0  0  0  0  0  0  0  0  0  0  0  0
   -7.5052   -3.9867    0.5013 H   0  0  0  0  0  0  0  0  0  0  0  0
   -6.4234   -3.2865   -0.7432 H   0  0  0  0  0  0  0  0  0  0  0  0
   -7.4170   -6.0440   -0.6002 H   0  0  0  0  0  0  0  0  0  0  0  0
   -6.3702   -5.3054   -1.8447 H   0  0  0  0  0  0  0  0  0  0  0  0
  1  2  1  0  0  0  0
  1 21  1  0  0  0  0
  2  3  1  0  0  0  0
  2  4  2  0  0  0  0
  3  5  1  0  0  0  0
  3 26  1  0  0  0  0
  3 27  1  0  0  0  0
  5  6  1  0  0  0  0
  5 28  1  0  0  0  0
  5 29  1  0  0  0  0
  6  7  1  0  0  0  0
  7  8  1  0  0  0  0
  7 30  1  0  0  0  0
  7 31  1  0  0  0  0
  8  9  1  0  0  0  0
  8 32  1  0  0  0  0
  8 33  1  0  0  0  0
  9 10  1  0  0  0  0
 10 11  1  0  0  0  0
 10 34  1  0  0  0  0
 10 35  1  0  0  0  0
 11 12  1  0  0  0  0
 11 36  1  0  0  0  0
 11 37  1  0  0  0  0
 12 13  1  0  0  0  0
 13 14  1  0  0  0  0
 13 38  1  0  0  0  0
 13 39  1  0  0  0  0
 14 15  1  0  0  0  0
 14 40  1  0  0  0  0
 14 41  1  0  0  0  0
 15 16  1  0  0  0  0
 16 17  1  0  0  0  0
 16 42  1  0  0  0  0
 16 43  1  0  0  0  0
 17 18  3  0  0  0  0
 18 44  1  0  0  0  0
 19 22  2  0  0  0  0
 20 23  2  0  0  0  0
 21 22  1  0  0  0  0
 21 23  1  0  0  0  0
 22 24  1  0  0  0  0
 23 25  1  0  0  0  0
 24 25  1  0  0  0  0
 24 45  1  0  0  0  0
 24 46  1  0  0  0  0
 25 47  1  0  0  0  0
 25 48  1  0  0  0  0
M  END
>  <Mol_ID>
6892

>  <Formula>
C16H23NO8

>  <MolWeight>
357.35572

>  <Cat>
S0655

>  <Name>
Propargyl-PEG4-NHS ester

>  <Synonyms>
N/A

>  <Target>
ADC Linker

>  <Form>
Free base

>  <CAS>
1428629-70-2

>  <URL>
http://www.selleckchem.com/products/propargyl-peg4-nhs-ester.html

$$$$
