Propafenone
 OpenBabel08302521303D

 52 53  0  0  0  0  0  0  0  0999 V2000
    1.1410   -0.0943   -1.1219 O   0  0  0  0  0  0  0  0  0  0  0  0
   -1.4979    0.4715   -2.3143 O   0  0  0  0  0  0  0  0  0  0  0  0
    3.1023   -3.4818    0.4871 O   0  0  0  0  0  0  0  0  0  0  0  0
    0.7266    1.6957   -5.1007 N   0  0  0  0  0  0  0  0  0  0  0  0
   -0.2826    0.4725   -3.0745 C   0  0  3  0  0  0  0  0  0  0  0  0
   -0.4551    1.4674   -4.2539 C   0  0  0  0  0  0  0  0  0  0  0  0
    0.8952    0.8751   -2.1785 C   0  0  0  0  0  0  0  0  0  0  0  0
    1.1748    0.4790   -5.7814 C   0  0  0  0  0  0  0  0  0  0  0  0
    0.9048   -2.6129    0.6673 C   0  0  0  0  0  0  0  0  0  0  0  0
   -0.0517   -2.9331   -0.4768 C   0  0  0  0  0  0  0  0  0  0  0  0
    2.3740    0.7433   -6.6960 C   0  0  0  0  0  0  0  0  0  0  0  0
    3.0278   -1.1946   -0.0604 C   0  0  0  0  0  0  0  0  0  0  0  0
    2.4342   -0.0567   -0.6355 C   0  0  0  0  0  0  0  0  0  0  0  0
    2.3738   -2.4961    0.3154 C   0  0  0  0  0  0  0  0  0  0  0  0
    0.2923   -4.0191   -1.4675 C   0  0  0  0  0  0  0  0  0  0  0  0
    4.4161   -1.1546    0.2146 C   0  0  0  0  0  0  0  0  0  0  0  0
    3.2133    1.1195   -0.7673 C   0  0  0  0  0  0  0  0  0  0  0  0
    3.5977    1.2745   -5.9598 C   0  0  0  0  0  0  0  0  0  0  0  0
    5.1889   -0.0181   -0.0231 C   0  0  0  0  0  0  0  0  0  0  0  0
    0.9850   -5.1867   -1.1210 C   0  0  0  0  0  0  0  0  0  0  0  0
   -0.1669   -3.8854   -2.7861 C   0  0  0  0  0  0  0  0  0  0  0  0
    4.5770    1.1301   -0.4876 C   0  0  0  0  0  0  0  0  0  0  0  0
    1.2549   -6.1658   -2.0866 C   0  0  0  0  0  0  0  0  0  0  0  0
    0.0990   -4.8622   -3.7467 C   0  0  0  0  0  0  0  0  0  0  0  0
    0.8177   -6.0002   -3.3966 C   0  0  0  0  0  0  0  0  0  0  0  0
   -1.3198   -0.0436   -1.5093 H   0  0  0  0  0  0  0  0  0  0  0  0
    0.4949    2.4028   -5.8021 H   0  0  0  0  0  0  0  0  0  0  0  0
   -0.1445   -0.5454   -3.4476 H   0  0  0  0  0  0  0  0  0  0  0  0
   -1.3039    1.1545   -4.8746 H   0  0  0  0  0  0  0  0  0  0  0  0
   -0.7535    2.4406   -3.8411 H   0  0  0  0  0  0  0  0  0  0  0  0
    0.6659    1.8378   -1.7018 H   0  0  0  0  0  0  0  0  0  0  0  0
    1.7814    0.9580   -2.8170 H   0  0  0  0  0  0  0  0  0  0  0  0
    1.4702   -0.2795   -5.0482 H   0  0  0  0  0  0  0  0  0  0  0  0
    0.3592    0.0649   -6.3820 H   0  0  0  0  0  0  0  0  0  0  0  0
    0.8363   -3.4230    1.4126 H   0  0  0  0  0  0  0  0  0  0  0  0
    0.5818   -1.7180    1.2081 H   0  0  0  0  0  0  0  0  0  0  0  0
   -1.0229   -3.1978   -0.0372 H   0  0  0  0  0  0  0  0  0  0  0  0
   -0.2274   -2.0120   -1.0348 H   0  0  0  0  0  0  0  0  0  0  0  0
    2.6470   -0.2001   -7.1849 H   0  0  0  0  0  0  0  0  0  0  0  0
    2.0973    1.4433   -7.4930 H   0  0  0  0  0  0  0  0  0  0  0  0
    4.9192   -2.0328    0.6177 H   0  0  0  0  0  0  0  0  0  0  0  0
    2.7862    2.0494   -1.1266 H   0  0  0  0  0  0  0  0  0  0  0  0
    3.8750    0.6177   -5.1293 H   0  0  0  0  0  0  0  0  0  0  0  0
    4.4512    1.3338   -6.6435 H   0  0  0  0  0  0  0  0  0  0  0  0
    3.4204    2.2788   -5.5621 H   0  0  0  0  0  0  0  0  0  0  0  0
    6.2578   -0.0377    0.1653 H   0  0  0  0  0  0  0  0  0  0  0  0
    1.3359   -5.3513   -0.1053 H   0  0  0  0  0  0  0  0  0  0  0  0
   -0.7462   -3.0116   -3.0757 H   0  0  0  0  0  0  0  0  0  0  0  0
    5.1591    2.0324   -0.6583 H   0  0  0  0  0  0  0  0  0  0  0  0
    1.8089   -7.0587   -1.8064 H   0  0  0  0  0  0  0  0  0  0  0  0
   -0.2594   -4.7333   -4.7642 H   0  0  0  0  0  0  0  0  0  0  0  0
    1.0327   -6.7599   -4.1437 H   0  0  0  0  0  0  0  0  0  0  0  0
  1  7  1  0  0  0  0
  1 13  1  0  0  0  0
  2  5  1  0  0  0  0
  2 26  1  0  0  0  0
  3 14  2  0  0  0  0
  4  6  1  0  0  0  0
  4  8  1  0  0  0  0
  4 27  1  0  0  0  0
  5  6  1  0  0  0  0
  5  7  1  0  0  0  0
  5 28  1  0  0  0  0
  6 29  1  0  0  0  0
  6 30  1  0  0  0  0
  7 31  1  0  0  0  0
  7 32  1  0  0  0  0
  8 11  1  0  0  0  0
  8 33  1  0  0  0  0
  8 34  1  0  0  0  0
  9 10  1  0  0  0  0
  9 14  1  0  0  0  0
  9 35  1  0  0  0  0
  9 36  1  0  0  0  0
 10 15  1  0  0  0  0
 10 37  1  0  0  0  0
 10 38  1  0  0  0  0
 11 18  1  0  0  0  0
 11 39  1  0  0  0  0
 11 40  1  0  0  0  0
 12 13  2  0  0  0  0
 12 14  1  0  0  0  0
 12 16  1  0  0  0  0
 13 17  1  0  0  0  0
 15 20  2  0  0  0  0
 15 21  1  0  0  0  0
 16 19  2  0  0  0  0
 16 41  1  0  0  0  0
 17 22  2  0  0  0  0
 17 42  1  0  0  0  0
 18 43  1  0  0  0  0
 18 44  1  0  0  0  0
 18 45  1  0  0  0  0
 19 22  1  0  0  0  0
 19 46  1  0  0  0  0
 20 23  1  0  0  0  0
 20 47  1  0  0  0  0
 21 24  2  0  0  0  0
 21 48  1  0  0  0  0
 22 49  1  0  0  0  0
 23 25  2  0  0  0  0
 23 50  1  0  0  0  0
 24 25  1  0  0  0  0
 24 51  1  0  0  0  0
 25 52  1  0  0  0  0
M  END
>  <Mol_ID>
5637

>  <Formula>
C21H27NO3

>  <MolWeight>
341.44398

>  <Cat>
S5789

>  <Name>
Propafenone

>  <Synonyms>
SA-79

>  <Target>
Adrenergic Receptor,Sodium Channel

>  <Form>
Free Base

>  <CAS>
54063-53-5

>  <URL>
http://www.selleckchem.com/products/propafenone.html

$$$$
