Proparacaine hydrochloride.cdx
 OpenBabel08302522033D

 47 47  0  0  0  0  0  0  0  0999 V2000
   -0.6667    1.1019    1.7302 C   0  0  0  0  0  0  0  0  0  0  0  0
    0.4837    1.1824    0.9215 C   0  0  0  0  0  0  0  0  0  0  0  0
    0.9280    0.0517    0.2410 C   0  0  0  0  0  0  0  0  0  0  0  0
    0.1785   -1.1183    0.2569 C   0  0  0  0  0  0  0  0  0  0  0  0
   -1.0178   -1.1954    0.9789 C   0  0  0  0  0  0  0  0  0  0  0  0
   -1.4551   -0.0646    1.6814 C   0  0  0  0  0  0  0  0  0  0  0  0
   -1.1553    2.2159    2.4360 N   0  0  0  0  0  0  0  0  0  0  0  0
    1.2171    2.3512    0.8944 O   0  0  0  0  0  0  0  0  0  0  0  0
    1.6135    2.7553   -0.4295 C   0  0  0  0  0  0  0  0  0  0  0  0
    3.0883    3.1673   -0.4916 C   0  0  0  0  0  0  0  0  0  0  0  0
    4.0736    2.1096   -0.0161 C   0  0  0  0  0  0  0  0  0  0  0  0
   -1.7899   -2.4708    1.0835 C   0  0  0  0  0  0  0  0  0  0  0  0
   -1.0791   -3.4628    0.5008 O   0  0  0  0  0  0  0  0  0  0  0  0
   -1.5293   -4.8213    0.6348 C   0  0  0  0  0  0  0  0  0  0  0  0
   -0.8023   -5.5904    1.7674 C   0  0  0  0  0  0  0  0  0  0  0  0
   -2.8487   -2.5913    1.6741 O   0  0  0  0  0  0  0  0  0  0  0  0
    0.6638   -5.7297    1.6003 N   0  0  0  0  0  0  0  0  0  0  0  0
    1.4089   -4.4657    1.7369 C   0  0  0  0  0  0  0  0  0  0  0  0
    1.1726   -3.6534    3.0086 C   0  0  0  0  0  0  0  0  0  0  0  0
    1.2558   -6.7689    2.4588 C   0  0  0  0  0  0  0  0  0  0  0  0
    0.8833   -8.1857    2.0306 C   0  0  0  0  0  0  0  0  0  0  0  0
    1.8642    0.0595   -0.3055 H   0  0  0  0  0  0  0  0  0  0  0  0
    0.5505   -1.9751   -0.3019 H   0  0  0  0  0  0  0  0  0  0  0  0
   -2.4020   -0.1044    2.2170 H   0  0  0  0  0  0  0  0  0  0  0  0
   -1.7590    1.9743    3.2226 H   0  0  0  0  0  0  0  0  0  0  0  0
   -0.3976    2.8371    2.7123 H   0  0  0  0  0  0  0  0  0  0  0  0
    1.4123    2.0068   -1.2059 H   0  0  0  0  0  0  0  0  0  0  0  0
    1.0043    3.6278   -0.6940 H   0  0  0  0  0  0  0  0  0  0  0  0
    3.3342    3.4304   -1.5284 H   0  0  0  0  0  0  0  0  0  0  0  0
    3.2384    4.0686    0.1127 H   0  0  0  0  0  0  0  0  0  0  0  0
    4.0082    1.1980   -0.6180 H   0  0  0  0  0  0  0  0  0  0  0  0
    5.0991    2.4899   -0.1092 H   0  0  0  0  0  0  0  0  0  0  0  0
    3.9114    1.8514    1.0337 H   0  0  0  0  0  0  0  0  0  0  0  0
   -2.6144   -4.8615    0.7914 H   0  0  0  0  0  0  0  0  0  0  0  0
   -1.3281   -5.3136   -0.3222 H   0  0  0  0  0  0  0  0  0  0  0  0
   -1.0457   -5.1470    2.7388 H   0  0  0  0  0  0  0  0  0  0  0  0
   -1.2530   -6.5904    1.7724 H   0  0  0  0  0  0  0  0  0  0  0  0
    2.4853   -4.6665    1.6572 H   0  0  0  0  0  0  0  0  0  0  0  0
    1.2097   -3.8428    0.8635 H   0  0  0  0  0  0  0  0  0  0  0  0
    1.4849   -4.2043    3.9004 H   0  0  0  0  0  0  0  0  0  0  0  0
    1.7547   -2.7266    2.9661 H   0  0  0  0  0  0  0  0  0  0  0  0
    0.1261   -3.3628    3.1334 H   0  0  0  0  0  0  0  0  0  0  0  0
    2.3496   -6.7137    2.3799 H   0  0  0  0  0  0  0  0  0  0  0  0
    1.0086   -6.6155    3.5158 H   0  0  0  0  0  0  0  0  0  0  0  0
    0.8340   -8.2800    0.9404 H   0  0  0  0  0  0  0  0  0  0  0  0
    1.6424   -8.8929    2.3847 H   0  0  0  0  0  0  0  0  0  0  0  0
   -0.0785   -8.4917    2.4519 H   0  0  0  0  0  0  0  0  0  0  0  0
  1  2  2  0  0  0  0
  1  7  1  0  0  0  0
  2  3  1  0  0  0  0
  2  8  1  0  0  0  0
  3  4  2  0  0  0  0
  3 22  1  0  0  0  0
  4  5  1  0  0  0  0
  4 23  1  0  0  0  0
  5  6  2  0  0  0  0
  5 12  1  0  0  0  0
  6  1  1  0  0  0  0
  6 24  1  0  0  0  0
  7 25  1  0  0  0  0
  7 26  1  0  0  0  0
  8  9  1  0  0  0  0
  9 10  1  0  0  0  0
  9 27  1  0  0  0  0
  9 28  1  0  0  0  0
 10 11  1  0  0  0  0
 10 29  1  0  0  0  0
 10 30  1  0  0  0  0
 11 31  1  0  0  0  0
 11 32  1  0  0  0  0
 11 33  1  0  0  0  0
 12 13  1  0  0  0  0
 12 16  2  0  0  0  0
 13 14  1  0  0  0  0
 14 15  1  0  0  0  0
 14 34  1  0  0  0  0
 14 35  1  0  0  0  0
 15 17  1  0  0  0  0
 15 36  1  0  0  0  0
 15 37  1  0  0  0  0
 17 18  1  0  0  0  0
 17 20  1  0  0  0  0
 18 19  1  0  0  0  0
 18 38  1  0  0  0  0
 18 39  1  0  0  0  0
 19 40  1  0  0  0  0
 19 41  1  0  0  0  0
 19 42  1  0  0  0  0
 20 21  1  0  0  0  0
 20 43  1  0  0  0  0
 20 44  1  0  0  0  0
 21 45  1  0  0  0  0
 21 46  1  0  0  0  0
 21 47  1  0  0  0  0
M  END
>  <Mol_ID>
1170

>  <Formula>
C16H27ClN2O3

>  <MolWeight>
330.85018

>  <Cat>
S1828

>  <Name>
Proparacaine HCl

>  <Synonyms>
Proxymetacaine Hydrochloride

>  <Target>
Sodium Channel

>  <Form>
Hydrochloride

>  <CAS>
5875-06-9

>  <URL>
http://selleckchem.com/products/proparacaine-hcl.html

$$$$
