Protionamide.cdx
 OpenBabel08302522013D

 24 24  0  0  0  0  0  0  0  0999 V2000
   -0.5645   -1.1423   -0.0483 C   0  0  0  0  0  0  0  0  0  0  0  0
   -1.2714    0.0090   -0.1302 N   0  0  0  0  0  0  0  0  0  0  0  0
   -0.5852    1.1671   -0.1326 C   0  0  0  0  0  0  0  0  0  0  0  0
    0.7942    1.2433   -0.0729 C   0  0  0  0  0  0  0  0  0  0  0  0
    1.5201    0.0518   -0.0118 C   0  0  0  0  0  0  0  0  0  0  0  0
    0.8245   -1.1624    0.0097 C   0  0  0  0  0  0  0  0  0  0  0  0
   -1.3610   -2.4209    0.0187 C   0  0  0  0  0  0  0  0  0  0  0  0
   -1.6954   -2.8566    1.4489 C   0  0  0  0  0  0  0  0  0  0  0  0
   -2.5593   -1.8566    2.2068 C   0  0  0  0  0  0  0  0  0  0  0  0
    3.0099    0.0891    0.0451 C   0  0  0  0  0  0  0  0  0  0  0  0
    3.6285    1.1498   -0.5693 N   0  0  0  0  0  0  0  0  0  0  0  0
    3.9849   -1.0504    0.7858 S   0  0  0  0  0  0  0  0  0  0  0  0
   -1.1947    2.0658   -0.1780 H   0  0  0  0  0  0  0  0  0  0  0  0
    1.2729    2.2144   -0.0479 H   0  0  0  0  0  0  0  0  0  0  0  0
    1.3454   -2.1129    0.0670 H   0  0  0  0  0  0  0  0  0  0  0  0
   -2.2881   -2.2942   -0.5543 H   0  0  0  0  0  0  0  0  0  0  0  0
   -0.8029   -3.2215   -0.4817 H   0  0  0  0  0  0  0  0  0  0  0  0
   -2.2328   -3.8111    1.4003 H   0  0  0  0  0  0  0  0  0  0  0  0
   -0.7746   -3.0386    2.0165 H   0  0  0  0  0  0  0  0  0  0  0  0
   -3.4487   -1.5838    1.6300 H   0  0  0  0  0  0  0  0  0  0  0  0
   -2.8902   -2.2888    3.1571 H   0  0  0  0  0  0  0  0  0  0  0  0
   -2.0018   -0.9441    2.4380 H   0  0  0  0  0  0  0  0  0  0  0  0
    4.6426    1.1742   -0.5754 H   0  0  0  0  0  0  0  0  0  0  0  0
    3.1503    1.8308   -1.1440 H   0  0  0  0  0  0  0  0  0  0  0  0
  1  2  2  0  0  0  0
  1  7  1  0  0  0  0
  2  3  1  0  0  0  0
  3  4  2  0  0  0  0
  3 13  1  0  0  0  0
  4  5  1  0  0  0  0
  4 14  1  0  0  0  0
  5  6  2  0  0  0  0
  5 10  1  0  0  0  0
  6  1  1  0  0  0  0
  6 15  1  0  0  0  0
  7  8  1  0  0  0  0
  7 16  1  0  0  0  0
  7 17  1  0  0  0  0
  8  9  1  0  0  0  0
  8 18  1  0  0  0  0
  8 19  1  0  0  0  0
  9 20  1  0  0  0  0
  9 21  1  0  0  0  0
  9 22  1  0  0  0  0
 10 11  1  0  0  0  0
 10 12  2  0  0  0  0
 11 23  1  0  0  0  0
 11 24  1  0  0  0  0
M  END
>  <Mol_ID>
1117

>  <Formula>
C9H12N2S

>  <MolWeight>
180.26998

>  <Cat>
S1881

>  <Name>
Protionamide

>  <Synonyms>
Prothionamide, 1321-TH

>  <Target>
Bacterial

>  <Form>
free base

>  <CAS>
14222-60-7

>  <URL>
http://selleckchem.com/products/protionamide-prothionamide.html

$$$$
