Pseudouridine
 OpenBabel08302521373D

 29 30  0  0  1  0  0  0  0  0999 V2000
   -1.8446    0.9321   -0.0117 O   0  0  0  0  0  0  0  0  0  0  0  0
    1.6075    2.2095   -2.1703 O   0  0  0  0  0  0  0  0  0  0  0  0
    1.9681   -0.9521   -1.7775 C   0  0  0  0  0  0  0  0  0  0  0  0
    3.3854   -0.9372   -1.6117 O   0  0  0  0  0  0  0  0  0  0  0  0
   -0.8191   -1.3633    0.7270 O   0  0  0  0  0  0  0  0  0  0  0  0
    2.3504    6.4063   -0.6517 O   0  0  0  0  0  0  0  0  0  0  0  0
    0.5622    1.2415    0.3550 C   0  0  2  0  0  0  0  0  0  0  0  0
    1.7051    0.3623    0.2541 O   0  0  0  0  0  0  0  0  0  0  0  0
   -0.5426    0.6591   -0.5328 C   0  0  1  0  0  0  0  0  0  0  0  0
    1.2949   -0.8646   -0.4066 C   0  0  1  0  0  0  0  0  0  0  0  0
   -0.2277   -0.8306   -0.4770 C   0  0  1  0  0  0  0  0  0  0  0  0
    0.9761    2.6584    0.0778 C   0  0  0  0  0  0  0  0  0  0  0  0
    1.5723    3.0049   -1.2376 C   0  0  0  0  0  0  0  0  0  0  0  0
    0.8588    3.6517    0.9718 C   0  0  0  0  0  0  0  0  0  0  0  0
    2.0758    4.2697   -1.3697 N   0  0  0  0  0  0  0  0  0  0  0  0
    1.3070    4.9157    0.7075 N   0  0  0  0  0  0  0  0  0  0  0  0
    1.9394    5.2682   -0.4511 C   0  0  0  0  0  0  0  0  0  0  0  0
   -2.1047    0.1301    0.4912 H   0  0  0  0  0  0  0  0  0  0  0  0
    1.6968   -1.8824   -2.2849 H   0  0  0  0  0  0  0  0  0  0  0  0
    1.6999   -0.1228   -2.4322 H   0  0  0  0  0  0  0  0  0  0  0  0
    3.5819   -0.1192   -1.1150 H   0  0  0  0  0  0  0  0  0  0  0  0
   -0.1799   -1.2604    1.4572 H   0  0  0  0  0  0  0  0  0  0  0  0
    0.2332    1.1792    1.4018 H   0  0  0  0  0  0  0  0  0  0  0  0
   -0.4962    1.0258   -1.5615 H   0  0  0  0  0  0  0  0  0  0  0  0
    1.6556   -1.6865    0.2221 H   0  0  0  0  0  0  0  0  0  0  0  0
   -0.6519   -1.3916   -1.3143 H   0  0  0  0  0  0  0  0  0  0  0  0
    0.4193    3.5021    1.9534 H   0  0  0  0  0  0  0  0  0  0  0  0
    2.4926    4.5140   -2.2547 H   0  0  0  0  0  0  0  0  0  0  0  0
    1.2118    5.6537    1.3964 H   0  0  0  0  0  0  0  0  0  0  0  0
  1 18  1  0  0  0  0
  2 13  2  0  0  0  0
  3  4  1  0  0  0  0
  3 19  1  0  0  0  0
  3 20  1  0  0  0  0
  4 21  1  0  0  0  0
  5 22  1  0  0  0  0
  6 17  2  0  0  0  0
  7  8  1  0  0  0  0
  7  9  1  0  0  0  0
  7 23  1  1  0  0  0
  7 12  1  0  0  0  0
  8 10  1  0  0  0  0
  9  1  1  0  0  0  0
  9 11  1  0  0  0  0
  9 24  1  6  0  0  0
 10 11  1  0  0  0  0
 10 25  1  1  0  0  0
 10  3  1  0  0  0  0
 11  5  1  0  0  0  0
 11 26  1  6  0  0  0
 12 13  1  0  0  0  0
 12 14  2  0  0  0  0
 13 15  1  0  0  0  0
 14 16  1  0  0  0  0
 14 27  1  0  0  0  0
 15 17  1  0  0  0  0
 15 28  1  0  0  0  0
 16 17  1  0  0  0  0
 16 29  1  0  0  0  0
M  END
>  <Mol_ID>
7391

>  <Formula>
C9H12N2O6

>  <MolWeight>
244.20138

>  <Cat>
E4479

>  <Name>
Pseudouridine

>  <Synonyms>
Pseudouridine

>  <Target>
Endogenous Metabolite

>  <Form>
Free base

>  <CAS>
1445-07-4

>  <URL>
https://www.selleckchem.com/products/pseudouridine.html

$$$$
