Pseudolaric Acid C
 OpenBabel08302521473D

 54 56  0  0  1  0  0  0  0  0999 V2000
    1.8152    3.1735   -1.4357 O   0  0  0  0  0  0  0  0  0  0  0  0
    0.6637   -0.2796    1.7592 O   0  0  0  0  0  0  0  0  0  0  0  0
   -2.5587    2.2254    0.4204 C   0  0  0  0  0  0  0  0  0  0  0  0
   -3.3851    3.0198   -0.2780 C   0  0  0  0  0  0  0  0  0  0  0  0
   -4.6364    2.5816   -0.8397 C   0  0  0  0  0  0  0  0  0  0  0  0
   -5.4002    3.3482   -1.6441 C   0  0  0  0  0  0  0  0  0  0  0  0
   -6.6083    2.6889   -2.2023 C   0  0  0  0  0  0  0  0  0  0  0  0
   -5.0511    4.7445   -2.0693 C   0  0  0  0  0  0  0  0  0  0  0  0
   -7.6149    3.5458   -2.4568 O   0  0  0  0  0  0  0  0  0  0  0  0
   -6.6933    1.4901   -2.4145 O   0  0  0  0  0  0  0  0  0  0  0  0
   -1.2146    3.8838    1.7182 C   0  0  0  0  0  0  0  0  0  0  0  0
    4.8652    3.4327   -0.7244 C   0  0  0  0  0  0  0  0  0  0  0  0
    5.4016    2.9855   -1.8874 O   0  0  0  0  0  0  0  0  0  0  0  0
    4.9593    4.5740   -0.2953 O   0  0  0  0  0  0  0  0  0  0  0  0
    6.0213    4.0101   -2.6632 C   0  0  0  0  0  0  0  0  0  0  0  0
    1.1423    1.1415   -0.1504 C   0  0  1  0  0  0  0  0  0  0  0  0
    1.1814    2.6937   -0.2261 C   0  0  2  0  0  0  0  0  0  0  0  0
    0.4071    0.7368    1.1328 C   0  0  0  0  0  0  0  0  0  0  0  0
    0.2200    0.7224   -1.3176 C   0  0  0  0  0  0  0  0  0  0  0  0
    2.5192    0.4040   -0.2078 C   0  0  0  0  0  0  0  0  0  0  0  0
   -0.3074    2.9635   -0.4742 C   0  0  1  0  0  0  0  0  0  0  0  0
    1.9050    3.3639    0.9617 C   0  0  0  0  0  0  0  0  0  0  0  0
   -0.5945    1.5540    1.5577 O   0  0  0  0  0  0  0  0  0  0  0  0
   -0.5598    1.9892   -1.6652 C   0  0  0  0  0  0  0  0  0  0  0  0
    3.6780    1.2461   -0.6838 C   0  0  0  0  0  0  0  0  0  0  0  0
   -1.1495    2.6476    0.7835 C   0  0  2  0  0  0  0  0  0  0  0  0
    3.3327    2.8265    1.2061 C   0  0  0  0  0  0  0  0  0  0  0  0
    4.0255    2.3944   -0.0628 C   0  0  0  0  0  0  0  0  0  0  0  0
    1.8620    4.1459   -1.3986 H   0  0  0  0  0  0  0  0  0  0  0  0
   -2.8404    1.1981    0.6448 H   0  0  0  0  0  0  0  0  0  0  0  0
   -3.0502    4.0265   -0.5050 H   0  0  0  0  0  0  0  0  0  0  0  0
   -4.9353    1.5548   -0.6234 H   0  0  0  0  0  0  0  0  0  0  0  0
   -3.9813    4.8530   -2.2751 H   0  0  0  0  0  0  0  0  0  0  0  0
   -5.3273    5.4536   -1.2814 H   0  0  0  0  0  0  0  0  0  0  0  0
   -5.5598    5.0332   -2.9926 H   0  0  0  0  0  0  0  0  0  0  0  0
   -7.4743    4.4546   -2.1389 H   0  0  0  0  0  0  0  0  0  0  0  0
   -0.8223    4.7834    1.2282 H   0  0  0  0  0  0  0  0  0  0  0  0
   -2.2392    4.1307    2.0169 H   0  0  0  0  0  0  0  0  0  0  0  0
   -0.6531    3.7333    2.6454 H   0  0  0  0  0  0  0  0  0  0  0  0
    6.2853    3.5869   -3.6362 H   0  0  0  0  0  0  0  0  0  0  0  0
    6.9335    4.3565   -2.1694 H   0  0  0  0  0  0  0  0  0  0  0  0
    5.3314    4.8444   -2.8321 H   0  0  0  0  0  0  0  0  0  0  0  0
   -0.4737   -0.0752   -1.0272 H   0  0  0  0  0  0  0  0  0  0  0  0
    0.7727    0.3735   -2.1976 H   0  0  0  0  0  0  0  0  0  0  0  0
    2.4393   -0.4713   -0.8653 H   0  0  0  0  0  0  0  0  0  0  0  0
    2.8047   -0.0156    0.7655 H   0  0  0  0  0  0  0  0  0  0  0  0
   -0.4950    3.9815   -0.8371 H   0  0  0  0  0  0  0  0  0  0  0  0
    1.9701    4.4443    0.7824 H   0  0  0  0  0  0  0  0  0  0  0  0
    1.3630    3.2394    1.9012 H   0  0  0  0  0  0  0  0  0  0  0  0
   -1.6053    1.7782   -1.8953 H   0  0  0  0  0  0  0  0  0  0  0  0
   -0.1492    2.4191   -2.5888 H   0  0  0  0  0  0  0  0  0  0  0  0
    4.0904    0.9854   -1.6561 H   0  0  0  0  0  0  0  0  0  0  0  0
    3.9194    3.5757    1.7498 H   0  0  0  0  0  0  0  0  0  0  0  0
    3.2798    1.9739    1.8967 H   0  0  0  0  0  0  0  0  0  0  0  0
  1 29  1  0  0  0  0
  2 18  2  0  0  0  0
  3  4  2  0  0  0  0
  3 30  1  0  0  0  0
  4  5  1  0  0  0  0
  4 31  1  0  0  0  0
  5  6  2  0  0  0  0
  5 32  1  0  0  0  0
  6  7  1  0  0  0  0
  6  8  1  0  0  0  0
  7  9  1  0  0  0  0
  7 10  2  0  0  0  0
  8 33  1  0  0  0  0
  8 34  1  0  0  0  0
  8 35  1  0  0  0  0
  9 36  1  0  0  0  0
 11 37  1  0  0  0  0
 11 38  1  0  0  0  0
 11 39  1  0  0  0  0
 12 13  1  0  0  0  0
 12 14  2  0  0  0  0
 12 28  1  0  0  0  0
 13 15  1  0  0  0  0
 15 40  1  0  0  0  0
 15 41  1  0  0  0  0
 15 42  1  0  0  0  0
 16 17  1  0  0  0  0
 16 18  1  1  0  0  0
 16 19  1  0  0  0  0
 16 20  1  0  0  0  0
 17  1  1  6  0  0  0
 17 21  1  0  0  0  0
 17 22  1  0  0  0  0
 18 23  1  0  0  0  0
 19 24  1  0  0  0  0
 19 43  1  0  0  0  0
 19 44  1  0  0  0  0
 20 25  1  0  0  0  0
 20 45  1  0  0  0  0
 20 46  1  0  0  0  0
 21 24  1  0  0  0  0
 21 26  1  0  0  0  0
 21 47  1  6  0  0  0
 22 27  1  0  0  0  0
 22 48  1  0  0  0  0
 22 49  1  0  0  0  0
 23 26  1  0  0  0  0
 24 50  1  0  0  0  0
 24 51  1  0  0  0  0
 25 28  2  0  0  0  0
 25 52  1  0  0  0  0
 26  3  1  6  0  0  0
 26 11  1  0  0  0  0
 27 28  1  0  0  0  0
 27 53  1  0  0  0  0
 27 54  1  0  0  0  0
M  END
>  <Mol_ID>
9783

>  <Formula>
C21H26O7

>  <MolWeight>
390.42694

>  <Cat>
E2312

>  <Name>
Pseudolaric Acid C

>  <Synonyms>
N/A

>  <Target>
Fungal

>  <Form>
free base

>  <CAS>
82601-41-0

>  <URL>
https://www.selleckchem.com/products/pseudolaric-acid-c.html

$$$$
