Psoralenoside
 OpenBabel08302521583D

 44 46  0  0  1  0  0  0  0  0999 V2000
    3.3480    1.1918    0.4909 O   0  0  0  0  0  0  0  0  0  0  0  0
    5.6444    2.2670    1.8918 C   0  0  0  0  0  0  0  0  0  0  0  0
    6.7209    3.0531    2.1096 C   0  0  0  0  0  0  0  0  0  0  0  0
    6.9685    4.2739    2.9152 C   0  0  0  0  0  0  0  0  0  0  0  0
    5.9218    5.0910    3.0588 O   0  0  0  0  0  0  0  0  0  0  0  0
    8.0817    4.5349    3.3545 O   0  0  0  0  0  0  0  0  0  0  0  0
    2.0070    0.8814   -2.1827 O   0  0  0  0  0  0  0  0  0  0  0  0
    2.6994   -3.3825    1.4347 C   0  0  0  0  0  0  0  0  0  0  0  0
    2.3694   -3.0461    2.7823 O   0  0  0  0  0  0  0  0  0  0  0  0
    2.5694   -1.8642   -3.2149 O   0  0  0  0  0  0  0  0  0  0  0  0
    1.6560   -3.8082   -1.3077 O   0  0  0  0  0  0  0  0  0  0  0  0
    3.1508    1.7265    1.7531 C   0  0  0  0  0  0  0  0  0  0  0  0
    4.2672    2.2937    2.4433 C   0  0  0  0  0  0  0  0  0  0  0  0
    1.8639    1.7790    2.3170 C   0  0  0  0  0  0  0  0  0  0  0  0
    4.0834    2.8118    3.7458 C   0  0  0  0  0  0  0  0  0  0  0  0
    1.7357    2.3813    3.5675 C   0  0  0  0  0  0  0  0  0  0  0  0
    2.7952    2.8976    4.2922 C   0  0  0  0  0  0  0  0  0  0  0  0
    0.5724    2.5389    4.2484 O   0  0  0  0  0  0  0  0  0  0  0  0
    2.2309    3.4198    5.4844 C   0  0  0  0  0  0  0  0  0  0  0  0
    0.8798    3.1716    5.4111 C   0  0  0  0  0  0  0  0  0  0  0  0
    2.5093    0.0695    0.0981 C   0  0  2  0  0  0  0  0  0  0  0  0
    2.9050   -1.0834    0.8393 O   0  0  0  0  0  0  0  0  0  0  0  0
    2.6705   -0.1562   -1.4297 C   0  0  1  0  0  0  0  0  0  0  0  0
    2.1972   -2.2830    0.4912 C   0  0  1  0  0  0  0  0  0  0  0  0
    2.1111   -1.5132   -1.8945 C   0  0  2  0  0  0  0  0  0  0  0  0
    2.4582   -2.6720   -0.9620 C   0  0  2  0  0  0  0  0  0  0  0  0
    5.8149    1.4124    1.2323 H   0  0  0  0  0  0  0  0  0  0  0  0
    7.6564    2.7396    1.6493 H   0  0  0  0  0  0  0  0  0  0  0  0
    5.1194    4.8092    2.5797 H   0  0  0  0  0  0  0  0  0  0  0  0
    1.0436    0.7630   -2.1125 H   0  0  0  0  0  0  0  0  0  0  0  0
    2.2585   -4.3572    1.2079 H   0  0  0  0  0  0  0  0  0  0  0  0
    3.7909   -3.4679    1.3793 H   0  0  0  0  0  0  0  0  0  0  0  0
    2.7264   -2.1491    2.9273 H   0  0  0  0  0  0  0  0  0  0  0  0
    3.2896   -1.2569   -3.4705 H   0  0  0  0  0  0  0  0  0  0  0  0
    1.5305   -3.7866   -2.2776 H   0  0  0  0  0  0  0  0  0  0  0  0
    0.9711    1.4170    1.8327 H   0  0  0  0  0  0  0  0  0  0  0  0
    4.9177    3.1610    4.3487 H   0  0  0  0  0  0  0  0  0  0  0  0
    2.7455    3.9234    6.2904 H   0  0  0  0  0  0  0  0  0  0  0  0
    0.0442    3.3763    6.0660 H   0  0  0  0  0  0  0  0  0  0  0  0
    1.4505    0.2926    0.2711 H   0  0  0  0  0  0  0  0  0  0  0  0
    3.7322   -0.0832   -1.6936 H   0  0  0  0  0  0  0  0  0  0  0  0
    1.1230   -2.1310    0.6722 H   0  0  0  0  0  0  0  0  0  0  0  0
    1.0211   -1.4507   -1.9995 H   0  0  0  0  0  0  0  0  0  0  0  0
    3.5085   -2.9541   -1.1068 H   0  0  0  0  0  0  0  0  0  0  0  0
  1 12  1  0  0  0  0
  2  3  2  0  0  0  0
  2 13  1  0  0  0  0
  2 27  1  0  0  0  0
  3  4  1  0  0  0  0
  3 28  1  0  0  0  0
  4  5  1  0  0  0  0
  4  6  2  0  0  0  0
  5 29  1  0  0  0  0
  7 30  1  0  0  0  0
  8  9  1  0  0  0  0
  8 31  1  0  0  0  0
  8 32  1  0  0  0  0
  9 33  1  0  0  0  0
 10 34  1  0  0  0  0
 11 35  1  0  0  0  0
 12 13  2  0  0  0  0
 12 14  1  0  0  0  0
 13 15  1  0  0  0  0
 14 16  2  0  0  0  0
 14 36  1  0  0  0  0
 15 17  2  0  0  0  0
 15 37  1  0  0  0  0
 16 17  1  0  0  0  0
 16 18  1  0  0  0  0
 17 19  1  0  0  0  0
 18 20  1  0  0  0  0
 19 20  2  0  0  0  0
 19 38  1  0  0  0  0
 20 39  1  0  0  0  0
 21 22  1  0  0  0  0
 21 23  1  0  0  0  0
 21 40  1  1  0  0  0
 21  1  1  0  0  0  0
 22 24  1  0  0  0  0
 23  7  1  0  0  0  0
 23 25  1  0  0  0  0
 23 41  1  6  0  0  0
 24  8  1  0  0  0  0
 24 26  1  0  0  0  0
 24 42  1  1  0  0  0
 25 10  1  0  0  0  0
 25 26  1  0  0  0  0
 25 43  1  6  0  0  0
 26 11  1  0  0  0  0
 26 44  1  6  0  0  0
M  END
>  <Mol_ID>
10115

>  <Formula>
C17H18O9

>  <MolWeight>
366.31942

>  <Cat>
S0960

>  <Name>
Psoralenoside

>  <Synonyms>
N/A

>  <Target>
Histamine Receptor,  CaMK, Calcium Channel, Bacterial

>  <Form>
free base

>  <CAS>
905954-17-8

>  <URL>
https://www.selleckchem.com/products/psoralenoside.html

$$$$
