Pteryxin
 OpenBabel08302521243D

 50 52  0  0  0  0  0  0  0  0999 V2000
   -0.4650    0.2552    0.2180 C   0  0  0  0  0  0  0  0  0  0  0  0
   -1.3078   -0.8499    0.4250 C   0  0  0  0  0  0  0  0  0  0  0  0
   -0.7839   -2.1352    0.6071 C   0  0  0  0  0  0  0  0  0  0  0  0
    0.5926   -2.3397    0.6064 C   0  0  0  0  0  0  0  0  0  0  0  0
    1.4502   -1.2516    0.4704 C   0  0  0  0  0  0  0  0  0  0  0  0
    0.9149    0.0332    0.3184 C   0  0  0  0  0  0  0  0  0  0  0  0
    2.8918   -1.4294    0.4202 C   0  0  0  0  0  0  0  0  0  0  0  0
    3.6895   -0.3648    0.2924 C   0  0  0  0  0  0  0  0  0  0  0  0
    3.1647    1.0077    0.2353 C   0  0  0  0  0  0  0  0  0  0  0  0
    1.7856    1.1425    0.2559 O   0  0  0  0  0  0  0  0  0  0  0  0
   -1.0454    1.6158   -0.1399 C   0  0  2  0  0  0  0  0  0  0  0  0
   -2.4964    1.3932   -0.6482 C   0  0  2  0  0  0  0  0  0  0  0  0
   -3.2802    0.5043    0.3516 C   0  0  0  0  0  0  0  0  0  0  0  0
   -2.6770   -0.8025    0.4316 O   0  0  0  0  0  0  0  0  0  0  0  0
   -4.7216    0.2657   -0.1426 C   0  0  0  0  0  0  0  0  0  0  0  0
   -3.3785    1.0630    1.7801 C   0  0  0  0  0  0  0  0  0  0  0  0
    3.9235    1.9656    0.1530 O   0  0  0  0  0  0  0  0  0  0  0  0
   -0.2869    2.2254   -1.2202 O   0  0  0  0  0  0  0  0  0  0  0  0
   -2.4532    0.6498   -1.9147 O   0  0  0  0  0  0  0  0  0  0  0  0
   -2.4532    1.3374   -3.0795 C   0  0  0  0  0  0  0  0  0  0  0  0
   -2.2414    0.3955   -4.2316 C   0  0  0  0  0  0  0  0  0  0  0  0
   -2.5649    2.5498   -3.1851 O   0  0  0  0  0  0  0  0  0  0  0  0
    0.4390    3.3632   -1.0306 C   0  0  0  0  0  0  0  0  0  0  0  0
    1.1102    3.7359   -2.3289 C   0  0  0  0  0  0  0  0  0  0  0  0
    0.5187    3.9834    0.0148 O   0  0  0  0  0  0  0  0  0  0  0  0
    1.8861    4.8237   -2.5519 C   0  0  0  0  0  0  0  0  0  0  0  0
    0.9403    2.8050   -3.5030 C   0  0  0  0  0  0  0  0  0  0  0  0
    2.4373    5.8666   -1.6402 C   0  0  0  0  0  0  0  0  0  0  0  0
   -1.4590   -2.9787    0.7257 H   0  0  0  0  0  0  0  0  0  0  0  0
    0.9797   -3.3507    0.7117 H   0  0  0  0  0  0  0  0  0  0  0  0
    3.3003   -2.4339    0.4504 H   0  0  0  0  0  0  0  0  0  0  0  0
    4.7650   -0.4599    0.2207 H   0  0  0  0  0  0  0  0  0  0  0  0
   -1.0502    2.2599    0.7482 H   0  0  0  0  0  0  0  0  0  0  0  0
   -3.0055    2.3522   -0.8022 H   0  0  0  0  0  0  0  0  0  0  0  0
   -4.7470   -0.1394   -1.1595 H   0  0  0  0  0  0  0  0  0  0  0  0
   -5.2293   -0.4767    0.4868 H   0  0  0  0  0  0  0  0  0  0  0  0
   -5.3106    1.1890   -0.1224 H   0  0  0  0  0  0  0  0  0  0  0  0
   -3.9726    0.3871    2.4098 H   0  0  0  0  0  0  0  0  0  0  0  0
   -2.4027    1.1281    2.2702 H   0  0  0  0  0  0  0  0  0  0  0  0
   -3.8499    2.0497    1.7976 H   0  0  0  0  0  0  0  0  0  0  0  0
   -2.5596    0.8775   -5.1601 H   0  0  0  0  0  0  0  0  0  0  0  0
   -1.1836    0.1302   -4.3066 H   0  0  0  0  0  0  0  0  0  0  0  0
   -2.8432   -0.5089   -4.1016 H   0  0  0  0  0  0  0  0  0  0  0  0
    2.2187    4.9808   -3.5807 H   0  0  0  0  0  0  0  0  0  0  0  0
    1.8975    2.6852   -4.0267 H   0  0  0  0  0  0  0  0  0  0  0  0
    0.6424    1.7916   -3.2237 H   0  0  0  0  0  0  0  0  0  0  0  0
    0.2053    3.2071   -4.2074 H   0  0  0  0  0  0  0  0  0  0  0  0
    3.4676    6.0783   -1.9591 H   0  0  0  0  0  0  0  0  0  0  0  0
    1.8815    6.8048   -1.7289 H   0  0  0  0  0  0  0  0  0  0  0  0
    2.4863    5.5545   -0.5972 H   0  0  0  0  0  0  0  0  0  0  0  0
  1  2  1  0  0  0  0
  1 11  1  0  0  0  0
  2  3  2  0  0  0  0
  3  4  1  0  0  0  0
  3 29  1  0  0  0  0
  4  5  2  0  0  0  0
  4 30  1  0  0  0  0
  5  6  1  0  0  0  0
  5  7  1  0  0  0  0
  6  1  2  0  0  0  0
  7  8  2  0  0  0  0
  7 31  1  0  0  0  0
  8  9  1  0  0  0  0
  8 32  1  0  0  0  0
  9 10  1  0  0  0  0
  9 17  2  0  0  0  0
 10  6  1  0  0  0  0
 11 12  1  0  0  0  0
 11 18  1  0  0  0  0
 11 33  1  1  0  0  0
 12 13  1  0  0  0  0
 12 19  1  0  0  0  0
 12 34  1  6  0  0  0
 13 14  1  0  0  0  0
 13 15  1  0  0  0  0
 13 16  1  0  0  0  0
 14  2  1  0  0  0  0
 15 35  1  0  0  0  0
 15 36  1  0  0  0  0
 15 37  1  0  0  0  0
 16 38  1  0  0  0  0
 16 39  1  0  0  0  0
 16 40  1  0  0  0  0
 18 23  1  0  0  0  0
 19 20  1  0  0  0  0
 20 21  1  0  0  0  0
 20 22  2  0  0  0  0
 21 41  1  0  0  0  0
 21 42  1  0  0  0  0
 21 43  1  0  0  0  0
 23 24  1  0  0  0  0
 23 25  2  0  0  0  0
 24 26  2  0  0  0  0
 24 27  1  0  0  0  0
 26 28  1  0  0  0  0
 26 44  1  0  0  0  0
 27 45  1  0  0  0  0
 27 46  1  0  0  0  0
 27 47  1  0  0  0  0
 28 48  1  0  0  0  0
 28 49  1  0  0  0  0
 28 50  1  0  0  0  0
M  END
>  <Mol_ID>
5093

>  <Formula>
C21H22O7

>  <MolWeight>
386.39518

>  <Cat>
S0924

>  <Name>
Pteryxin

>  <Synonyms>
(+)-Pteryxin

>  <Target>
BChE,NOS

>  <Form>
free base

>  <CAS>
13161-75-6

>  <URL>
http://www.selleckchem.com/products/pteryxin.html

$$$$
