PTGR2-IN-1
 OpenBabel08302521333D

 45 47  0  0  0  0  0  0  0  0999 V2000
    1.2030    0.2325    0.1559 C   0  0  0  0  0  0  0  0  0  0  0  0
    2.5871    0.0322    0.7523 C   0  0  0  0  0  0  0  0  0  0  0  0
    3.8111    0.6075    0.1143 C   0  0  0  0  0  0  0  0  0  0  0  0
    3.8542    1.0644   -1.2066 C   0  0  0  0  0  0  0  0  0  0  0  0
    5.0743    1.4730   -1.7657 C   0  0  0  0  0  0  0  0  0  0  0  0
    6.2444    1.4497   -1.0066 C   0  0  0  0  0  0  0  0  0  0  0  0
    6.1995    1.0450    0.3240 C   0  0  0  0  0  0  0  0  0  0  0  0
    4.9886    0.6300    0.8805 C   0  0  0  0  0  0  0  0  0  0  0  0
    0.9616   -0.5351   -1.0796 N   0  0  0  0  0  0  0  0  0  0  0  0
   -0.4218   -0.2761   -1.5616 C   0  0  0  0  0  0  0  0  0  0  0  0
   -1.5357   -0.9655   -0.7396 C   0  0  0  0  0  0  0  0  0  0  0  0
   -1.3171   -2.4134   -0.7958 N   0  0  0  0  0  0  0  0  0  0  0  0
   -0.0080   -2.8243   -0.2547 C   0  0  0  0  0  0  0  0  0  0  0  0
    1.1398   -2.0073   -0.9314 C   0  0  0  0  0  0  0  0  0  0  0  0
   -2.4049   -3.2813   -0.7707 C   0  0  0  0  0  0  0  0  0  0  0  0
   -2.3898   -4.5587   -1.3704 C   0  0  0  0  0  0  0  0  0  0  0  0
   -3.5347   -5.3760   -1.3814 C   0  0  0  0  0  0  0  0  0  0  0  0
   -4.7303   -4.9386   -0.8078 C   0  0  0  0  0  0  0  0  0  0  0  0
   -4.7749   -3.6912   -0.2068 C   0  0  0  0  0  0  0  0  0  0  0  0
   -3.6281   -2.8846   -0.1846 C   0  0  0  0  0  0  0  0  0  0  0  0
   -1.2769   -5.1400   -1.9339 O   0  0  0  0  0  0  0  0  0  0  0  0
   -0.7976   -4.4659   -3.0951 C   0  0  0  0  0  0  0  0  0  0  0  0
    2.7137   -0.6048    1.8109 O   0  0  0  0  0  0  0  0  0  0  0  0
    1.0773    1.3055   -0.0344 H   0  0  0  0  0  0  0  0  0  0  0  0
    0.4816   -0.0294    0.9391 H   0  0  0  0  0  0  0  0  0  0  0  0
    2.9665    1.0795   -1.8331 H   0  0  0  0  0  0  0  0  0  0  0  0
    5.1159    1.7930   -2.8046 H   0  0  0  0  0  0  0  0  0  0  0  0
    7.1939    1.7348   -1.4536 H   0  0  0  0  0  0  0  0  0  0  0  0
    7.1049    1.0340    0.9255 H   0  0  0  0  0  0  0  0  0  0  0  0
    4.9711    0.3047    1.9195 H   0  0  0  0  0  0  0  0  0  0  0  0
   -0.6130    0.8023   -1.6096 H   0  0  0  0  0  0  0  0  0  0  0  0
   -0.4887   -0.6375   -2.5975 H   0  0  0  0  0  0  0  0  0  0  0  0
   -1.5360   -0.6259    0.3031 H   0  0  0  0  0  0  0  0  0  0  0  0
   -2.4979   -0.6795   -1.1799 H   0  0  0  0  0  0  0  0  0  0  0  0
    0.0123   -2.6656    0.8266 H   0  0  0  0  0  0  0  0  0  0  0  0
    0.1951   -3.8909   -0.4258 H   0  0  0  0  0  0  0  0  0  0  0  0
    1.2597   -2.3926   -1.9531 H   0  0  0  0  0  0  0  0  0  0  0  0
    2.0924   -2.2400   -0.4427 H   0  0  0  0  0  0  0  0  0  0  0  0
   -3.4900   -6.3584   -1.8448 H   0  0  0  0  0  0  0  0  0  0  0  0
   -5.6123   -5.5723   -0.8329 H   0  0  0  0  0  0  0  0  0  0  0  0
   -5.6922   -3.3406    0.2569 H   0  0  0  0  0  0  0  0  0  0  0  0
   -3.7086   -1.9264    0.3218 H   0  0  0  0  0  0  0  0  0  0  0  0
   -1.5228   -4.5072   -3.9130 H   0  0  0  0  0  0  0  0  0  0  0  0
   -0.5169   -3.4306   -2.9064 H   0  0  0  0  0  0  0  0  0  0  0  0
    0.1103   -4.9876   -3.4161 H   0  0  0  0  0  0  0  0  0  0  0  0
  1  2  1  0  0  0  0
  1  9  1  0  0  0  0
  1 24  1  0  0  0  0
  1 25  1  0  0  0  0
  2  3  1  0  0  0  0
  2 23  2  0  0  0  0
  3  4  2  0  0  0  0
  3  8  1  0  0  0  0
  4  5  1  0  0  0  0
  4 26  1  0  0  0  0
  5  6  2  0  0  0  0
  5 27  1  0  0  0  0
  6  7  1  0  0  0  0
  6 28  1  0  0  0  0
  7  8  2  0  0  0  0
  7 29  1  0  0  0  0
  8 30  1  0  0  0  0
  9 10  1  0  0  0  0
  9 14  1  0  0  0  0
 10 11  1  0  0  0  0
 10 31  1  0  0  0  0
 10 32  1  0  0  0  0
 11 12  1  0  0  0  0
 11 33  1  0  0  0  0
 11 34  1  0  0  0  0
 12 13  1  0  0  0  0
 12 15  1  0  0  0  0
 13 14  1  0  0  0  0
 13 35  1  0  0  0  0
 13 36  1  0  0  0  0
 14 37  1  0  0  0  0
 14 38  1  0  0  0  0
 15 16  2  0  0  0  0
 15 20  1  0  0  0  0
 16 17  1  0  0  0  0
 16 21  1  0  0  0  0
 17 18  2  0  0  0  0
 17 39  1  0  0  0  0
 18 19  1  0  0  0  0
 18 40  1  0  0  0  0
 19 20  2  0  0  0  0
 19 41  1  0  0  0  0
 20 42  1  0  0  0  0
 21 22  1  0  0  0  0
 22 43  1  0  0  0  0
 22 44  1  0  0  0  0
 22 45  1  0  0  0  0
M  END
>  <Mol_ID>
6346

>  <Formula>
C19H22N2O2

>  <MolWeight>
310.39018

>  <Cat>
E0791

>  <Name>
PTGR2-IN-1

>  <Target>
Others

>  <Form>
free base

>  <CAS>
349093-44-3

>  <URL>
http://www.selleckchem.com/products/ptgr2-in-1.html

$$$$
