Purine
 OpenBabel08302521313D

 13 14  0  0  0  0  0  0  0  0999 V2000
    0.2904    0.7191    0.0178 C   0  0  0  0  0  0  0  0  0  0  0  0
    0.2129   -0.6636    0.0052 C   0  0  0  0  0  0  0  0  0  0  0  0
    1.6018    1.1338    0.0278 N   0  0  0  0  0  0  0  0  0  0  0  0
   -0.9228    1.3986    0.0200 C   0  0  0  0  0  0  0  0  0  0  0  0
    1.5085   -1.0907    0.0119 N   0  0  0  0  0  0  0  0  0  0  0  0
   -0.8902   -1.4270   -0.0074 N   0  0  0  0  0  0  0  0  0  0  0  0
    2.3070    0.0214    0.0249 C   0  0  0  0  0  0  0  0  0  0  0  0
   -2.0833    0.6908    0.0081 N   0  0  0  0  0  0  0  0  0  0  0  0
   -2.0003   -0.6592   -0.0055 C   0  0  0  0  0  0  0  0  0  0  0  0
   -0.9958    2.4780    0.0325 H   0  0  0  0  0  0  0  0  0  0  0  0
    1.8053   -2.0545    0.0107 H   0  0  0  0  0  0  0  0  0  0  0  0
    3.3874   -0.0431    0.0327 H   0  0  0  0  0  0  0  0  0  0  0  0
   -2.9475   -1.1915   -0.0156 H   0  0  0  0  0  0  0  0  0  0  0  0
  1  2  2  0  0  0  0
  1  3  1  0  0  0  0
  1  4  1  0  0  0  0
  2  5  1  0  0  0  0
  2  6  1  0  0  0  0
  3  7  2  0  0  0  0
  4  8  2  0  0  0  0
  4 10  1  0  0  0  0
  5  7  1  0  0  0  0
  5 11  1  0  0  0  0
  6  9  2  0  0  0  0
  7 12  1  0  0  0  0
  8  9  1  0  0  0  0
  9 13  1  0  0  0  0
M  END
>  <Mol_ID>
5801

>  <Formula>
C5H4N4

>  <MolWeight>
120.11206

>  <Cat>
S6359

>  <Name>
Purine

>  <Synonyms>
N/A

>  <Target>
DNA/RNA Synthesis

>  <Form>
Free Base

>  <CAS>
120-73-0

>  <URL>
https://www.selleckchem.com/products/purine.html

$$$$
