Purvalanol B
 OpenBabel08302521243D

 55 57  0  0  0  0  0  0  0  0999 V2000
    1.8250   -1.4876    0.1196 C   0  0  0  0  0  0  0  0  0  0  0  0
    0.8373   -1.7408    1.1903 C   0  0  0  0  0  0  0  0  0  0  0  0
    0.6802   -0.8096    2.2199 C   0  0  0  0  0  0  0  0  0  0  0  0
   -0.2963   -1.0093    3.2068 C   0  0  0  0  0  0  0  0  0  0  0  0
   -1.1302   -2.1356    3.1738 C   0  0  0  0  0  0  0  0  0  0  0  0
   -0.8780   -3.1002    2.1880 C   0  0  0  0  0  0  0  0  0  0  0  0
    0.0851   -2.9122    1.1994 C   0  0  0  0  0  0  0  0  0  0  0  0
    2.8582   -0.8661    0.3048 O   0  0  0  0  0  0  0  0  0  0  0  0
    1.4582   -1.9621   -1.0887 O   0  0  0  0  0  0  0  0  0  0  0  0
   -2.1788   -2.2609    4.1036 N   0  0  0  0  0  0  0  0  0  0  0  0
   -4.8275   -1.6164    5.5369 N   0  0  0  0  0  0  0  0  0  0  0  0
   -6.1213   -1.7206    5.7622 C   0  0  0  0  0  0  0  0  0  0  0  0
   -6.6922   -2.7291    5.0280 N   0  0  0  0  0  0  0  0  0  0  0  0
   -5.6942   -3.3268    4.3077 C   0  0  0  0  0  0  0  0  0  0  0  0
   -5.8047   -4.3515    3.4483 N   0  0  0  0  0  0  0  0  0  0  0  0
   -4.6351   -4.6768    2.8837 C   0  0  0  0  0  0  0  0  0  0  0  0
   -3.4742   -4.0389    3.0873 N   0  0  0  0  0  0  0  0  0  0  0  0
   -3.3780   -2.9888    3.9531 C   0  0  0  0  0  0  0  0  0  0  0  0
   -4.5499   -2.6167    4.6277 C   0  0  0  0  0  0  0  0  0  0  0  0
   -8.1034   -3.0811    4.9719 C   0  0  0  0  0  0  0  0  0  0  0  0
   -8.6356   -3.5065    6.3383 C   0  0  0  0  0  0  0  0  0  0  0  0
   -8.9385   -1.9520    4.3676 C   0  0  0  0  0  0  0  0  0  0  0  0
   -4.5541   -5.7123    1.9735 N   0  0  0  0  0  0  0  0  0  0  0  0
   -5.7328   -6.0565    1.1813 C   0  0  2  0  0  0  0  0  0  0  0  0
   -5.5154   -7.4147    0.4480 C   0  0  0  0  0  0  0  0  0  0  0  0
   -4.3973   -7.4425   -0.5993 C   0  0  0  0  0  0  0  0  0  0  0  0
   -5.2934   -8.5540    1.4517 C   0  0  0  0  0  0  0  0  0  0  0  0
   -6.1318   -4.9104    0.2215 C   0  0  0  0  0  0  0  0  0  0  0  0
   -5.0589   -4.4909   -0.6190 O   0  0  0  0  0  0  0  0  0  0  0  0
    1.3041    0.0819    2.2503 H   0  0  0  0  0  0  0  0  0  0  0  0
   -0.4140   -0.2579    3.9848 H   0  0  0  0  0  0  0  0  0  0  0  0
   -1.4292   -4.0333    2.1667 H   0  0  0  0  0  0  0  0  0  0  0  0
    0.2368   -3.6985    0.4658 H   0  0  0  0  0  0  0  0  0  0  0  0
    0.5382   -2.2785   -1.1441 H   0  0  0  0  0  0  0  0  0  0  0  0
   -2.3123   -1.4681    4.7260 H   0  0  0  0  0  0  0  0  0  0  0  0
   -6.6931   -1.0897    6.4322 H   0  0  0  0  0  0  0  0  0  0  0  0
   -8.1888   -3.9464    4.3028 H   0  0  0  0  0  0  0  0  0  0  0  0
   -8.6015   -2.6842    7.0608 H   0  0  0  0  0  0  0  0  0  0  0  0
   -9.6745   -3.8434    6.2595 H   0  0  0  0  0  0  0  0  0  0  0  0
   -8.0429   -4.3333    6.7451 H   0  0  0  0  0  0  0  0  0  0  0  0
   -8.5656   -1.6806    3.3734 H   0  0  0  0  0  0  0  0  0  0  0  0
   -9.9845   -2.2585    4.2613 H   0  0  0  0  0  0  0  0  0  0  0  0
   -8.9123   -1.0507    4.9894 H   0  0  0  0  0  0  0  0  0  0  0  0
   -3.6687   -5.6542    1.4845 H   0  0  0  0  0  0  0  0  0  0  0  0
   -6.5816   -6.2153    1.8603 H   0  0  0  0  0  0  0  0  0  0  0  0
   -6.4498   -7.6415   -0.0833 H   0  0  0  0  0  0  0  0  0  0  0  0
   -3.4269   -7.1678   -0.1753 H   0  0  0  0  0  0  0  0  0  0  0  0
   -4.2975   -8.4497   -1.0220 H   0  0  0  0  0  0  0  0  0  0  0  0
   -4.6139   -6.7767   -1.4388 H   0  0  0  0  0  0  0  0  0  0  0  0
   -6.0989   -8.5843    2.1922 H   0  0  0  0  0  0  0  0  0  0  0  0
   -5.2806   -9.5215    0.9376 H   0  0  0  0  0  0  0  0  0  0  0  0
   -4.3415   -8.4465    1.9820 H   0  0  0  0  0  0  0  0  0  0  0  0
   -6.9625   -5.2273   -0.4171 H   0  0  0  0  0  0  0  0  0  0  0  0
   -6.4720   -4.0306    0.7784 H   0  0  0  0  0  0  0  0  0  0  0  0
   -4.4117   -4.0526   -0.0403 H   0  0  0  0  0  0  0  0  0  0  0  0
  1  2  1  0  0  0  0
  1  8  2  0  0  0  0
  1  9  1  0  0  0  0
  2  3  2  0  0  0  0
  2  7  1  0  0  0  0
  3  4  1  0  0  0  0
  3 30  1  0  0  0  0
  4  5  2  0  0  0  0
  4 31  1  0  0  0  0
  5  6  1  0  0  0  0
  5 10  1  0  0  0  0
  6  7  2  0  0  0  0
  6 32  1  0  0  0  0
  7 33  1  0  0  0  0
  9 34  1  0  0  0  0
 10 18  1  0  0  0  0
 10 35  1  0  0  0  0
 11 12  2  0  0  0  0
 11 19  1  0  0  0  0
 12 13  1  0  0  0  0
 12 36  1  0  0  0  0
 13 14  1  0  0  0  0
 13 20  1  0  0  0  0
 14 15  1  0  0  0  0
 14 19  2  0  0  0  0
 15 16  2  0  0  0  0
 16 17  1  0  0  0  0
 16 23  1  0  0  0  0
 17 18  2  0  0  0  0
 18 19  1  0  0  0  0
 20 21  1  0  0  0  0
 20 22  1  0  0  0  0
 20 37  1  0  0  0  0
 21 38  1  0  0  0  0
 21 39  1  0  0  0  0
 21 40  1  0  0  0  0
 22 41  1  0  0  0  0
 22 42  1  0  0  0  0
 22 43  1  0  0  0  0
 23 44  1  0  0  0  0
 24 23  1  0  0  0  0
 24 45  1  1  0  0  0
 24 28  1  0  0  0  0
 24 25  1  0  0  0  0
 25 26  1  0  0  0  0
 25 27  1  0  0  0  0
 25 46  1  0  0  0  0
 26 47  1  0  0  0  0
 26 48  1  0  0  0  0
 26 49  1  0  0  0  0
 27 50  1  0  0  0  0
 27 51  1  0  0  0  0
 27 52  1  0  0  0  0
 28 29  1  0  0  0  0
 28 53  1  0  0  0  0
 28 54  1  0  0  0  0
 29 55  1  0  0  0  0
M  END
>  <Mol_ID>
4990

>  <Formula>
C20H25ClN6O3

>  <MolWeight>
432.9039

>  <Cat>
S0500

>  <Name>
Purvalanol B

>  <Synonyms>
NG 95

>  <Target>
CDK

>  <Form>
Free Base

>  <CAS>
212844-54-7

>  <URL>
http://www.selleckchem.com/products/purvalanol-b-ng-95.html

$$$$
