Purvalanol A.cdx
 OpenBabel08302519593D

 52 54  0  0  0  0  0  0  0  0999 V2000
   -5.2564   -2.9551    3.2779 N   0  0  0  0  0  0  0  0  0  0  0  0
   -4.7205   -2.4269    2.1526 C   0  0  0  0  0  0  0  0  0  0  0  0
   -4.7758   -1.1337    1.7855 N   0  0  0  0  0  0  0  0  0  0  0  0
   -5.4089   -0.3639    2.6822 C   0  0  0  0  0  0  0  0  0  0  0  0
   -5.9912   -0.7761    3.8651 C   0  0  0  0  0  0  0  0  0  0  0  0
   -5.9440   -2.1558    4.1459 C   0  0  0  0  0  0  0  0  0  0  0  0
   -5.6247    0.9895    2.6320 N   0  0  0  0  0  0  0  0  0  0  0  0
   -6.2635    1.3480    3.7888 C   0  0  0  0  0  0  0  0  0  0  0  0
   -6.4978    0.3088    4.5537 N   0  0  0  0  0  0  0  0  0  0  0  0
   -6.5474   -2.7245    5.2852 N   0  0  0  0  0  0  0  0  0  0  0  0
   -7.6473   -2.2259    6.0058 C   0  0  0  0  0  0  0  0  0  0  0  0
   -8.7044   -1.5744    5.3470 C   0  0  0  0  0  0  0  0  0  0  0  0
   -9.7345   -0.9518    6.0515 C   0  0  0  0  0  0  0  0  0  0  0  0
   -9.7344   -0.9835    7.4404 C   0  0  0  0  0  0  0  0  0  0  0  0
   -8.7109   -1.6471    8.1160 C   0  0  0  0  0  0  0  0  0  0  0  0
   -7.6730   -2.2641    7.4035 C   0  0  0  0  0  0  0  0  0  0  0  0
   -5.2331    1.8948    1.5640 C   0  0  0  0  0  0  0  0  0  0  0  0
   -6.4446    2.6040    0.9552 C   0  0  0  0  0  0  0  0  0  0  0  0
   -4.1915    2.9023    2.0516 C   0  0  0  0  0  0  0  0  0  0  0  0
   -3.9905   -3.2140    1.2746 N   0  0  0  0  0  0  0  0  0  0  0  0
   -4.3509   -4.6185    1.0562 C   0  0  2  0  0  0  0  0  0  0  0  0
   -3.0466   -5.4339    0.7990 C   0  0  0  0  0  0  0  0  0  0  0  0
   -3.3293   -6.9298    0.6055 C   0  0  0  0  0  0  0  0  0  0  0  0
   -2.1924   -4.9373   -0.3763 C   0  0  0  0  0  0  0  0  0  0  0  0
   -5.3816   -4.7511   -0.0905 C   0  0  0  0  0  0  0  0  0  0  0  0
   -6.6095   -4.0866    0.2072 O   0  0  0  0  0  0  0  0  0  0  0  0
   -6.5336    2.3690    4.0243 H   0  0  0  0  0  0  0  0  0  0  0  0
   -5.9814   -3.4440    5.7132 H   0  0  0  0  0  0  0  0  0  0  0  0
   -8.7178   -1.5232    4.2610 H   0  0  0  0  0  0  0  0  0  0  0  0
  -10.5152   -0.4251    5.5099 H   0  0  0  0  0  0  0  0  0  0  0  0
  -10.5218   -0.4783    7.9932 H   0  0  0  0  0  0  0  0  0  0  0  0
   -8.7081   -1.6624    9.2029 H   0  0  0  0  0  0  0  0  0  0  0  0
   -6.8677   -2.7386    7.9566 H   0  0  0  0  0  0  0  0  0  0  0  0
   -4.7725    1.2833    0.7778 H   0  0  0  0  0  0  0  0  0  0  0  0
   -6.9603    3.2338    1.6890 H   0  0  0  0  0  0  0  0  0  0  0  0
   -6.1400    3.2459    0.1217 H   0  0  0  0  0  0  0  0  0  0  0  0
   -7.1722    1.8783    0.5744 H   0  0  0  0  0  0  0  0  0  0  0  0
   -3.3290    2.3898    2.4897 H   0  0  0  0  0  0  0  0  0  0  0  0
   -3.8341    3.5213    1.2217 H   0  0  0  0  0  0  0  0  0  0  0  0
   -4.6036    3.5712    2.8155 H   0  0  0  0  0  0  0  0  0  0  0  0
   -3.9023   -2.6610    0.4267 H   0  0  0  0  0  0  0  0  0  0  0  0
   -4.8072   -5.0286    1.9663 H   0  0  0  0  0  0  0  0  0  0  0  0
   -2.4323   -5.3323    1.7038 H   0  0  0  0  0  0  0  0  0  0  0  0
   -3.6472   -7.1527   -0.4195 H   0  0  0  0  0  0  0  0  0  0  0  0
   -2.4239   -7.5158    0.7993 H   0  0  0  0  0  0  0  0  0  0  0  0
   -4.1086   -7.2833    1.2877 H   0  0  0  0  0  0  0  0  0  0  0  0
   -1.9936   -3.8631   -0.3179 H   0  0  0  0  0  0  0  0  0  0  0  0
   -1.2201   -5.4445   -0.3706 H   0  0  0  0  0  0  0  0  0  0  0  0
   -2.6634   -5.1465   -1.3425 H   0  0  0  0  0  0  0  0  0  0  0  0
   -4.9982   -4.3261   -1.0232 H   0  0  0  0  0  0  0  0  0  0  0  0
   -5.6267   -5.8003   -0.2765 H   0  0  0  0  0  0  0  0  0  0  0  0
   -6.8447   -4.2995    1.1287 H   0  0  0  0  0  0  0  0  0  0  0  0
  1  2  2  0  0  0  0
  2  3  1  0  0  0  0
  2 20  1  0  0  0  0
  3  4  2  0  0  0  0
  4  5  1  0  0  0  0
  4  7  1  0  0  0  0
  5  6  2  0  0  0  0
  6  1  1  0  0  0  0
  6 10  1  0  0  0  0
  7  8  1  0  0  0  0
  7 17  1  0  0  0  0
  8  9  2  0  0  0  0
  8 27  1  0  0  0  0
  9  5  1  0  0  0  0
 10 11  1  0  0  0  0
 10 28  1  0  0  0  0
 11 12  2  0  0  0  0
 12 13  1  0  0  0  0
 12 29  1  0  0  0  0
 13 14  2  0  0  0  0
 13 30  1  0  0  0  0
 14 15  1  0  0  0  0
 14 31  1  0  0  0  0
 15 16  2  0  0  0  0
 15 32  1  0  0  0  0
 16 11  1  0  0  0  0
 16 33  1  0  0  0  0
 17 18  1  0  0  0  0
 17 19  1  0  0  0  0
 17 34  1  0  0  0  0
 18 35  1  0  0  0  0
 18 36  1  0  0  0  0
 18 37  1  0  0  0  0
 19 38  1  0  0  0  0
 19 39  1  0  0  0  0
 19 40  1  0  0  0  0
 20 41  1  0  0  0  0
 21 25  1  0  0  0  0
 21 42  1  1  0  0  0
 21 22  1  0  0  0  0
 21 20  1  0  0  0  0
 22 23  1  0  0  0  0
 22 24  1  0  0  0  0
 22 43  1  0  0  0  0
 23 44  1  0  0  0  0
 23 45  1  0  0  0  0
 23 46  1  0  0  0  0
 24 47  1  0  0  0  0
 24 48  1  0  0  0  0
 24 49  1  0  0  0  0
 25 26  1  0  0  0  0
 25 50  1  0  0  0  0
 25 51  1  0  0  0  0
 26 52  1  0  0  0  0
M  END
>  <Mol_ID>
2582

>  <Formula>
C19H25ClN6O

>  <MolWeight>
388.8944

>  <Cat>
S7793

>  <Name>
Purvalanol A

>  <Synonyms>
N/A

>  <Target>
Apoptosis related,Autophagy,CDK

>  <Form>
free base

>  <CAS>
212844-53-6

>  <URL>
http://selleckchem.com/products/purvalanol-a.html

$$$$
