Pyrrole-2-carboxaldehyde
 OpenBabel08302521363D

 12 12  0  0  0  0  0  0  0  0999 V2000
    0.8716    0.0726    0.0359 C   0  0  0  0  0  0  0  0  0  0  0  0
    0.5338    0.0363    1.2156 O   0  0  0  0  0  0  0  0  0  0  0  0
    0.2258    0.8926   -0.9556 C   0  0  0  0  0  0  0  0  0  0  0  0
    0.4939    1.0255   -2.3059 C   0  0  0  0  0  0  0  0  0  0  0  0
   -0.8338    1.7223   -0.6686 N   0  0  0  0  0  0  0  0  0  0  0  0
   -0.4238    1.9643   -2.8371 C   0  0  0  0  0  0  0  0  0  0  0  0
   -1.2263    2.3848   -1.8010 C   0  0  0  0  0  0  0  0  0  0  0  0
    1.7153   -0.5409   -0.3236 H   0  0  0  0  0  0  0  0  0  0  0  0
    1.2689    0.5050   -2.8543 H   0  0  0  0  0  0  0  0  0  0  0  0
   -1.2445    1.8189    0.2526 H   0  0  0  0  0  0  0  0  0  0  0  0
   -0.4895    2.3008   -3.8646 H   0  0  0  0  0  0  0  0  0  0  0  0
   -2.0424    3.0938   -1.7722 H   0  0  0  0  0  0  0  0  0  0  0  0
  1  2  2  0  0  0  0
  1  3  1  0  0  0  0
  1  8  1  0  0  0  0
  3  4  2  0  0  0  0
  3  5  1  0  0  0  0
  4  6  1  0  0  0  0
  4  9  1  0  0  0  0
  5  7  1  0  0  0  0
  5 10  1  0  0  0  0
  6  7  2  0  0  0  0
  6 11  1  0  0  0  0
  7 12  1  0  0  0  0
M  END
>  <Mol_ID>
7086

>  <Formula>
C5H5NO

>  <MolWeight>
95.0993

>  <Cat>
E4101

>  <Name>
Pyrrole-2-carboxaldehyde

>  <Synonyms>
Pyrrole-2-carboxaldehyde

>  <Target>
Others

>  <Form>
Free base

>  <CAS>
1003-29-8

>  <URL>
https://www.selleckchem.com/products/pyrrole-2-carboxaldehyde.html

$$$$
