Pyruvic acid
 OpenBabel08302521293D

 10  9  0  0  0  0  0  0  0  0999 V2000
    0.9434   -0.0682   -0.0930 O   0  0  0  0  0  0  0  0  0  0  0  0
   -1.7700   -0.1328   -0.1210 O   0  0  0  0  0  0  0  0  0  0  0  0
    0.9933   -2.1432   -0.9350 O   0  0  0  0  0  0  0  0  0  0  0  0
   -1.1753   -1.1253   -0.5222 C   0  0  0  0  0  0  0  0  0  0  0  0
   -1.8726   -2.3568   -1.0199 C   0  0  0  0  0  0  0  0  0  0  0  0
    0.3596   -1.1818   -0.5450 C   0  0  0  0  0  0  0  0  0  0  0  0
    1.9060   -0.2290   -0.1582 H   0  0  0  0  0  0  0  0  0  0  0  0
   -1.6018   -2.5408   -2.0625 H   0  0  0  0  0  0  0  0  0  0  0  0
   -1.6017   -3.2135   -0.3980 H   0  0  0  0  0  0  0  0  0  0  0  0
   -2.9549   -2.2103   -0.9607 H   0  0  0  0  0  0  0  0  0  0  0  0
  1  6  1  0  0  0  0
  1  7  1  0  0  0  0
  2  4  2  0  0  0  0
  3  6  2  0  0  0  0
  4  5  1  0  0  0  0
  4  6  1  0  0  0  0
  5  8  1  0  0  0  0
  5  9  1  0  0  0  0
  5 10  1  0  0  0  0
M  END
>  <Mol_ID>
5466

>  <Formula>
C3H4O3

>  <MolWeight>
88.06206

>  <Cat>
S3143

>  <Name>
Pyruvic acid

>  <Synonyms>
Acetylformic acid

>  <Target>
ATPase,Casein Kinase,LDH

>  <Form>
Free Base

>  <CAS>
127-17-3

>  <URL>
https://www.selleckchem.com/products/pyruvic-acid.html

$$$$
