QNZ.cdx
 OpenBabel08302522033D

 47 50  0  0  0  0  0  0  0  0999 V2000
    4.5447    0.6573    3.1121 N   0  0  0  0  0  0  0  0  0  0  0  0
    3.4284    1.3772    2.9498 C   0  0  0  0  0  0  0  0  0  0  0  0
    3.1178    2.1374    1.8929 N   0  0  0  0  0  0  0  0  0  0  0  0
    4.0133    2.1650    0.8897 C   0  0  0  0  0  0  0  0  0  0  0  0
    5.2251    1.4547    0.9516 C   0  0  0  0  0  0  0  0  0  0  0  0
    6.2111    1.4608   -0.0661 C   0  0  0  0  0  0  0  0  0  0  0  0
    7.4079    0.7651    0.0762 C   0  0  0  0  0  0  0  0  0  0  0  0
    7.5807   -0.0117    1.2126 C   0  0  0  0  0  0  0  0  0  0  0  0
    6.6138   -0.0187    2.2260 C   0  0  0  0  0  0  0  0  0  0  0  0
    5.4347    0.7069    2.1162 C   0  0  0  0  0  0  0  0  0  0  0  0
    3.7496    2.9568   -0.2550 N   0  0  0  0  0  0  0  0  0  0  0  0
    8.2926    0.6679   -1.0010 N   0  0  0  0  0  0  0  0  0  0  0  0
    2.4814    3.6790   -0.2227 C   0  0  0  0  0  0  0  0  0  0  0  0
    2.3299    4.5332   -1.4929 C   0  0  0  0  0  0  0  0  0  0  0  0
    1.0716    5.3715   -1.5721 C   0  0  0  0  0  0  0  0  0  0  0  0
    0.0792    5.3356   -0.5848 C   0  0  0  0  0  0  0  0  0  0  0  0
   -1.0371    6.1660   -0.6622 C   0  0  0  0  0  0  0  0  0  0  0  0
   -1.1517    7.0936   -1.6962 C   0  0  0  0  0  0  0  0  0  0  0  0
   -0.2151    7.0876   -2.7288 C   0  0  0  0  0  0  0  0  0  0  0  0
    0.8899    6.2311   -2.6682 C   0  0  0  0  0  0  0  0  0  0  0  0
   -2.1712    8.0149   -1.7841 O   0  0  0  0  0  0  0  0  0  0  0  0
   -2.6787    8.5699   -0.6269 C   0  0  0  0  0  0  0  0  0  0  0  0
   -1.9270    8.8194    0.5273 C   0  0  0  0  0  0  0  0  0  0  0  0
   -2.5426    9.3346    1.6690 C   0  0  0  0  0  0  0  0  0  0  0  0
   -3.8964    9.6629    1.6416 C   0  0  0  0  0  0  0  0  0  0  0  0
   -4.6335    9.4814    0.4714 C   0  0  0  0  0  0  0  0  0  0  0  0
   -4.0259    8.9341   -0.6607 C   0  0  0  0  0  0  0  0  0  0  0  0
    2.7024    1.3372    3.7551 H   0  0  0  0  0  0  0  0  0  0  0  0
    6.0383    2.0294   -0.9759 H   0  0  0  0  0  0  0  0  0  0  0  0
    8.4735   -0.6218    1.3334 H   0  0  0  0  0  0  0  0  0  0  0  0
    6.7828   -0.6161    3.1187 H   0  0  0  0  0  0  0  0  0  0  0  0
    3.8219    2.3594   -1.0743 H   0  0  0  0  0  0  0  0  0  0  0  0
    8.2638    1.4614   -1.6348 H   0  0  0  0  0  0  0  0  0  0  0  0
    9.2419    0.4286   -0.7341 H   0  0  0  0  0  0  0  0  0  0  0  0
    1.6498    2.9657   -0.1613 H   0  0  0  0  0  0  0  0  0  0  0  0
    2.4511    4.3359    0.6566 H   0  0  0  0  0  0  0  0  0  0  0  0
    3.1938    5.2084   -1.5632 H   0  0  0  0  0  0  0  0  0  0  0  0
    2.3656    3.8764   -2.3718 H   0  0  0  0  0  0  0  0  0  0  0  0
    0.1535    4.6805    0.2787 H   0  0  0  0  0  0  0  0  0  0  0  0
   -1.7884    6.1037    0.1200 H   0  0  0  0  0  0  0  0  0  0  0  0
   -0.3316    7.7640   -3.5716 H   0  0  0  0  0  0  0  0  0  0  0  0
    1.6215    6.2568   -3.4739 H   0  0  0  0  0  0  0  0  0  0  0  0
   -0.8641    8.5967    0.5622 H   0  0  0  0  0  0  0  0  0  0  0  0
   -1.9637    9.4788    2.5776 H   0  0  0  0  0  0  0  0  0  0  0  0
   -4.3741   10.0690    2.5294 H   0  0  0  0  0  0  0  0  0  0  0  0
   -5.6833    9.7606    0.4425 H   0  0  0  0  0  0  0  0  0  0  0  0
   -4.6056    8.7847   -1.5675 H   0  0  0  0  0  0  0  0  0  0  0  0
  1  2  2  0  0  0  0
  1 10  1  0  0  0  0
  2  3  1  0  0  0  0
  2 28  1  0  0  0  0
  3  4  2  0  0  0  0
  4  5  1  0  0  0  0
  4 11  1  0  0  0  0
  5  6  1  0  0  0  0
  5 10  2  0  0  0  0
  6  7  2  0  0  0  0
  6 29  1  0  0  0  0
  7  8  1  0  0  0  0
  7 12  1  0  0  0  0
  8  9  2  0  0  0  0
  8 30  1  0  0  0  0
  9 10  1  0  0  0  0
  9 31  1  0  0  0  0
 11 13  1  0  0  0  0
 11 32  1  0  0  0  0
 12 33  1  0  0  0  0
 12 34  1  0  0  0  0
 13 14  1  0  0  0  0
 13 35  1  0  0  0  0
 13 36  1  0  0  0  0
 14 15  1  0  0  0  0
 14 37  1  0  0  0  0
 14 38  1  0  0  0  0
 15 16  2  0  0  0  0
 15 20  1  0  0  0  0
 16 17  1  0  0  0  0
 16 39  1  0  0  0  0
 17 18  2  0  0  0  0
 17 40  1  0  0  0  0
 18 19  1  0  0  0  0
 18 21  1  0  0  0  0
 19 20  2  0  0  0  0
 19 41  1  0  0  0  0
 20 42  1  0  0  0  0
 21 22  1  0  0  0  0
 22 23  2  0  0  0  0
 22 27  1  0  0  0  0
 23 24  1  0  0  0  0
 23 43  1  0  0  0  0
 24 25  2  0  0  0  0
 24 44  1  0  0  0  0
 25 26  1  0  0  0  0
 25 45  1  0  0  0  0
 26 27  2  0  0  0  0
 26 46  1  0  0  0  0
 27 47  1  0  0  0  0
M  END
>  <Mol_ID>
1207

>  <Formula>
C22H20N4O

>  <MolWeight>
356.4204

>  <Cat>
S4902

>  <Name>
QNZ (EVP4593)

>  <Synonyms>
N/A

>  <Target>
NF-¦ÊB,TNF-alpha

>  <Form>
free base

>  <CAS>
545380-34-5

>  <URL>
http://selleckchem.com/products/qnz-evp4593.html

$$$$
