Qstatin
 OpenBabel08302521323D

 19 20  0  0  0  0  0  0  0  0999 V2000
    1.0340   -0.0832    0.0144 S   0  0  0  0  0  0  0  0  0  0  0  0
    0.6191   -0.7094   -1.2290 O   0  0  0  0  0  0  0  0  0  0  0  0
    0.6262   -0.5875    1.3122 O   0  0  0  0  0  0  0  0  0  0  0  0
    0.2381    5.5385   -1.7422 Br  0  0  0  0  0  0  0  0  0  0  0  0
    0.4647    1.5926   -0.0633 C   0  0  0  0  0  0  0  0  0  0  0  0
    1.0861    2.5441   -1.3465 S   0  0  0  0  0  0  0  0  0  0  0  0
   -0.4242    2.3118    0.7160 C   0  0  0  0  0  0  0  0  0  0  0  0
    0.1807    3.8890   -0.8564 C   0  0  0  0  0  0  0  0  0  0  0  0
   -0.5972    3.6489    0.2477 C   0  0  0  0  0  0  0  0  0  0  0  0
    2.7580   -0.1046    0.0212 N   0  0  0  0  0  0  0  0  0  0  0  0
    3.4775   -1.1023   -0.5951 C   0  0  0  0  0  0  0  0  0  0  0  0
    3.5541    0.7752    0.6929 N   0  0  0  0  0  0  0  0  0  0  0  0
    4.8028   -0.8241   -0.3562 C   0  0  0  0  0  0  0  0  0  0  0  0
    4.7894    0.3368    0.4394 C   0  0  0  0  0  0  0  0  0  0  0  0
   -0.9276    1.8882    1.5781 H   0  0  0  0  0  0  0  0  0  0  0  0
   -1.2530    4.3809    0.7038 H   0  0  0  0  0  0  0  0  0  0  0  0
    2.9890   -1.8917   -1.1511 H   0  0  0  0  0  0  0  0  0  0  0  0
    5.6613   -1.3834   -0.7025 H   0  0  0  0  0  0  0  0  0  0  0  0
    5.6330    0.8800    0.8486 H   0  0  0  0  0  0  0  0  0  0  0  0
  1  2  2  0  0  0  0
  1  3  2  0  0  0  0
  1  5  1  0  0  0  0
  1 10  1  0  0  0  0
  4  8  1  0  0  0  0
  5  6  1  0  0  0  0
  5  7  2  0  0  0  0
  6  8  1  0  0  0  0
  7  9  1  0  0  0  0
  7 15  1  0  0  0  0
  8  9  2  0  0  0  0
  9 16  1  0  0  0  0
 10 11  1  0  0  0  0
 10 12  1  0  0  0  0
 11 13  2  0  0  0  0
 11 17  1  0  0  0  0
 12 14  2  0  0  0  0
 13 14  1  0  0  0  0
 13 18  1  0  0  0  0
 14 19  1  0  0  0  0
M  END
>  <Mol_ID>
6149

>  <Formula>
C7H5BrN2O2S2

>  <MolWeight>
293.1608

>  <Cat>
S0163

>  <Name>
Qstatin

>  <Synonyms>
N/A

>  <Target>
Antiviral

>  <Form>
free base

>  <CAS>
902688-24-8

>  <URL>
http://www.selleckchem.com/products/qstatin.html

$$$$
