Quinine
 OpenBabel08302521303D

 48 51  0  0  0  0  0  0  0  0999 V2000
   -4.9790   -1.6692    1.4664 O   0  0  0  0  0  0  0  0  0  0  0  0
   -0.0835    1.9674    3.6613 O   0  0  0  0  0  0  0  0  0  0  0  0
   -2.3726   -2.9832    0.4516 N   0  0  3  0  0  0  0  0  0  0  0  0
   -4.5991    3.2296    0.7479 N   0  0  0  0  0  0  0  0  0  0  0  0
   -3.3622   -2.7780   -1.9534 C   0  0  1  0  0  0  0  0  0  0  0  0
   -2.8409   -1.5726    0.2081 C   0  0  1  0  0  0  0  0  0  0  0  0
   -3.5267   -1.4667   -1.1753 C   0  0  0  0  0  0  0  0  0  0  0  0
   -1.8749   -3.2022   -2.0223 C   0  0  2  0  0  0  0  0  0  0  0  0
   -4.1131   -3.8438   -1.1219 C   0  0  0  0  0  0  0  0  0  0  0  0
   -1.3394   -3.3127   -0.5655 C   0  0  0  0  0  0  0  0  0  0  0  0
   -3.4809   -3.9475    0.2754 C   0  0  0  0  0  0  0  0  0  0  0  0
   -3.7209   -0.9773    1.3655 C   0  0  1  0  0  0  0  0  0  0  0  0
   -0.9177   -2.3841   -2.8653 C   0  0  0  0  0  0  0  0  0  0  0  0
   -4.0052    0.5144    1.2059 C   0  0  0  0  0  0  0  0  0  0  0  0
   -1.1559   -1.2837   -3.5896 C   0  0  0  0  0  0  0  0  0  0  0  0
   -3.1334    1.5326    1.6914 C   0  0  0  0  0  0  0  0  0  0  0  0
   -5.1711    0.9144    0.5273 C   0  0  0  0  0  0  0  0  0  0  0  0
   -3.4977    2.8750    1.4256 C   0  0  0  0  0  0  0  0  0  0  0  0
   -1.9539    1.2957    2.4368 C   0  0  0  0  0  0  0  0  0  0  0  0
   -5.4168    2.2533    0.3193 C   0  0  0  0  0  0  0  0  0  0  0  0
   -2.6883    3.9058    1.8865 C   0  0  0  0  0  0  0  0  0  0  0  0
   -1.1686    2.3487    2.9222 C   0  0  0  0  0  0  0  0  0  0  0  0
   -1.5383    3.6554    2.6341 C   0  0  0  0  0  0  0  0  0  0  0  0
    0.7161    3.0127    4.2074 C   0  0  0  0  0  0  0  0  0  0  0  0
   -5.5183   -1.1792    2.1137 H   0  0  0  0  0  0  0  0  0  0  0  0
   -3.8085   -2.6982   -2.9508 H   0  0  0  0  0  0  0  0  0  0  0  0
   -1.9354   -0.9503    0.1774 H   0  0  0  0  0  0  0  0  0  0  0  0
   -4.5974   -1.2631   -1.0852 H   0  0  0  0  0  0  0  0  0  0  0  0
   -3.1022   -0.6182   -1.7209 H   0  0  0  0  0  0  0  0  0  0  0  0
   -1.8572   -4.2105   -2.4624 H   0  0  0  0  0  0  0  0  0  0  0  0
   -5.1723   -3.5732   -1.0291 H   0  0  0  0  0  0  0  0  0  0  0  0
   -4.0724   -4.8171   -1.6242 H   0  0  0  0  0  0  0  0  0  0  0  0
   -0.9839   -4.3393   -0.3956 H   0  0  0  0  0  0  0  0  0  0  0  0
   -0.4588   -2.6791   -0.4037 H   0  0  0  0  0  0  0  0  0  0  0  0
   -3.1010   -4.9663    0.4288 H   0  0  0  0  0  0  0  0  0  0  0  0
   -4.2370   -3.8318    1.0566 H   0  0  0  0  0  0  0  0  0  0  0  0
   -3.2171   -1.1544    2.3197 H   0  0  0  0  0  0  0  0  0  0  0  0
    0.1050   -2.7637   -2.8730 H   0  0  0  0  0  0  0  0  0  0  0  0
   -0.3443   -0.7993   -4.1263 H   0  0  0  0  0  0  0  0  0  0  0  0
   -2.1336   -0.8248   -3.6711 H   0  0  0  0  0  0  0  0  0  0  0  0
   -5.8893    0.1867    0.1514 H   0  0  0  0  0  0  0  0  0  0  0  0
   -1.6313    0.2856    2.6703 H   0  0  0  0  0  0  0  0  0  0  0  0
   -6.3024    2.5874   -0.2111 H   0  0  0  0  0  0  0  0  0  0  0  0
   -2.9738    4.9274    1.6686 H   0  0  0  0  0  0  0  0  0  0  0  0
   -0.9641    4.5096    2.9778 H   0  0  0  0  0  0  0  0  0  0  0  0
    1.1958    3.5910    3.4112 H   0  0  0  0  0  0  0  0  0  0  0  0
    0.1298    3.6603    4.8682 H   0  0  0  0  0  0  0  0  0  0  0  0
    1.5044    2.5523    4.8097 H   0  0  0  0  0  0  0  0  0  0  0  0
  1 25  1  0  0  0  0
  2 22  1  0  0  0  0
  2 24  1  0  0  0  0
  3  6  1  0  0  0  0
  3 10  1  0  0  0  0
  3 11  1  0  0  0  0
  4 18  2  0  0  0  0
  4 20  1  0  0  0  0
  5  7  1  0  0  0  0
  5  8  1  0  0  0  0
  5  9  1  0  0  0  0
  5 26  1  6  0  0  0
  6  7  1  0  0  0  0
  6 12  1  0  0  0  0
  6 27  1  6  0  0  0
  7 28  1  0  0  0  0
  7 29  1  0  0  0  0
  8 10  1  0  0  0  0
  8 30  1  6  0  0  0
  8 13  1  0  0  0  0
  9 11  1  0  0  0  0
  9 31  1  0  0  0  0
  9 32  1  0  0  0  0
 10 33  1  0  0  0  0
 10 34  1  0  0  0  0
 11 35  1  0  0  0  0
 11 36  1  0  0  0  0
 12  1  1  0  0  0  0
 12 14  1  0  0  0  0
 12 37  1  1  0  0  0
 13 15  2  0  0  0  0
 13 38  1  0  0  0  0
 14 16  2  0  0  0  0
 14 17  1  0  0  0  0
 15 39  1  0  0  0  0
 15 40  1  0  0  0  0
 16 18  1  0  0  0  0
 16 19  1  0  0  0  0
 17 20  2  0  0  0  0
 17 41  1  0  0  0  0
 18 21  1  0  0  0  0
 19 22  2  0  0  0  0
 19 42  1  0  0  0  0
 20 43  1  0  0  0  0
 21 23  2  0  0  0  0
 21 44  1  0  0  0  0
 22 23  1  0  0  0  0
 23 45  1  0  0  0  0
 24 46  1  0  0  0  0
 24 47  1  0  0  0  0
 24 48  1  0  0  0  0
M  END
>  <Mol_ID>
5699

>  <Formula>
C20H24N2O2

>  <MolWeight>
324.41676

>  <Cat>
S4495

>  <Name>
Quinine

>  <Synonyms>
N/A

>  <Target>
Potassium Channel

>  <Form>
Free Base

>  <CAS>
130-95-0

>  <URL>
http://www.selleckchem.com/products/quinine.html

$$$$
