Quininic acid
 OpenBabel08302521373D

 24 25  0  0  0  0  0  0  0  0999 V2000
    0.9322    0.0530    0.1234 C   0  0  0  0  0  0  0  0  0  0  0  0
    0.3598    1.1245   -0.4713 O   0  0  0  0  0  0  0  0  0  0  0  0
    0.2558   -0.8029    0.6662 O   0  0  0  0  0  0  0  0  0  0  0  0
    2.6658   -4.8544    0.1153 O   0  0  0  0  0  0  0  0  0  0  0  0
    3.4239   -6.0582    0.1207 C   0  0  0  0  0  0  0  0  0  0  0  0
    3.1423   -1.2136    0.0754 C   0  0  0  0  0  0  0  0  0  0  0  0
    4.5483   -1.1216    0.0557 C   0  0  0  0  0  0  0  0  0  0  0  0
    2.4243    0.0209    0.0678 C   0  0  0  0  0  0  0  0  0  0  0  0
    2.5750   -2.5236    0.0915 C   0  0  0  0  0  0  0  0  0  0  0  0
    5.3176   -2.2806    0.0547 C   0  0  0  0  0  0  0  0  0  0  0  0
    5.2115    0.0421    0.0428 N   0  0  0  0  0  0  0  0  0  0  0  0
    3.1306    1.2327    0.0773 C   0  0  0  0  0  0  0  0  0  0  0  0
    3.3640   -3.6809    0.0926 C   0  0  0  0  0  0  0  0  0  0  0  0
    4.7419   -3.5540    0.0697 C   0  0  0  0  0  0  0  0  0  0  0  0
    4.5036    1.1883    0.0598 C   0  0  0  0  0  0  0  0  0  0  0  0
    0.9347    1.7205   -0.9811 H   0  0  0  0  0  0  0  0  0  0  0  0
    4.0170   -6.1529   -0.7948 H   0  0  0  0  0  0  0  0  0  0  0  0
    4.0581   -6.1236    1.0109 H   0  0  0  0  0  0  0  0  0  0  0  0
    2.7212   -6.8962    0.1505 H   0  0  0  0  0  0  0  0  0  0  0  0
    1.4975   -2.6604    0.1141 H   0  0  0  0  0  0  0  0  0  0  0  0
    6.4012   -2.1883    0.0400 H   0  0  0  0  0  0  0  0  0  0  0  0
    2.6413    2.1986    0.1317 H   0  0  0  0  0  0  0  0  0  0  0  0
    5.4044   -4.4132    0.0687 H   0  0  0  0  0  0  0  0  0  0  0  0
    5.1053    2.0931    0.0721 H   0  0  0  0  0  0  0  0  0  0  0  0
  1  2  1  0  0  0  0
  1  3  2  0  0  0  0
  1  8  1  0  0  0  0
  2 16  1  0  0  0  0
  4  5  1  0  0  0  0
  4 13  1  0  0  0  0
  5 17  1  0  0  0  0
  5 18  1  0  0  0  0
  5 19  1  0  0  0  0
  6  7  1  0  0  0  0
  6  8  2  0  0  0  0
  6  9  1  0  0  0  0
  7 10  1  0  0  0  0
  7 11  2  0  0  0  0
  8 12  1  0  0  0  0
  9 13  2  0  0  0  0
  9 20  1  0  0  0  0
 10 14  2  0  0  0  0
 10 21  1  0  0  0  0
 11 15  1  0  0  0  0
 12 15  2  0  0  0  0
 12 22  1  0  0  0  0
 13 14  1  0  0  0  0
 14 23  1  0  0  0  0
 15 24  1  0  0  0  0
M  END
>  <Mol_ID>
7406

>  <Formula>
C11H9NO3

>  <MolWeight>
203.19406

>  <Cat>
E4500

>  <Name>
Quininic acid

>  <Target>
Others

>  <Form>
Free base

>  <CAS>
86-68-0

>  <URL>
https://www.selleckchem.com/products/quininic-acid.html

$$$$
