Quipazine Maleate
 OpenBabel08302520323D

 43 44  0  0  0  0  0  0  0  0999 V2000
   -0.5252   -1.0450   -0.1390 C   0  0  0  0  0  0  0  0  0  0  0  0
   -0.5804    0.6976   -0.7039 C   0  0  0  0  0  0  0  0  0  0  0  0
   -1.7795    1.2674   -0.8402 N   0  0  0  0  0  0  0  0  0  0  0  0
   -2.8870    0.5469   -0.4976 C   0  0  0  0  0  0  0  0  0  0  0  0
   -2.8988   -0.8560   -0.2088 C   0  0  0  0  0  0  0  0  0  0  0  0
   -1.7615   -1.6524   -0.0249 C   0  0  0  0  0  0  0  0  0  0  0  0
    1.0937   -1.8521    0.1422 C   0  0  0  0  0  0  0  0  0  0  0  0
    2.6533   -0.9798   -0.1391 C   0  0  0  0  0  0  0  0  0  0  0  0
    2.6110    0.7350   -0.7815 C   0  0  0  0  0  0  0  0  0  0  0  0
    1.0064    1.5320   -1.0643 C   0  0  0  0  0  0  0  0  0  0  0  0
   -4.1073    1.2223   -0.3752 N   0  0  0  0  0  0  0  0  0  0  0  0
   -4.3063    2.4739   -1.1173 C   0  0  0  0  0  0  0  0  0  0  0  0
   -4.4891    3.7116   -0.2162 C   0  0  0  0  0  0  0  0  0  0  0  0
   -5.4632    3.5089    0.8736 N   0  0  0  0  0  0  0  0  0  0  0  0
   -4.9558    2.4028    1.7043 C   0  0  0  0  0  0  0  0  0  0  0  0
   -4.7910    1.0759    0.9316 C   0  0  0  0  0  0  0  0  0  0  0  0
    1.0133    0.2038    0.5409 C   0  0  0  0  0  0  0  0  0  0  0  0
    0.4080    0.6013    1.7364 C   0  0  0  0  0  0  0  0  0  0  0  0
   -0.9149    0.6973    2.4075 C   0  0  0  0  0  0  0  0  0  0  0  0
    1.0397   -0.5199   -1.4665 C   0  0  0  0  0  0  0  0  0  0  0  0
   -0.0588   -0.7160   -2.3630 O   0  0  0  0  0  0  0  0  0  0  0  0
    1.9905   -0.8680   -2.2101 O   0  0  0  0  0  0  0  0  0  0  0  0
   -0.9414    1.7389    3.2717 O   0  0  0  0  0  0  0  0  0  0  0  0
   -1.8180   -0.1081    2.3575 O   0  0  0  0  0  0  0  0  0  0  0  0
   -3.8663   -1.3300   -0.0400 H   0  0  0  0  0  0  0  0  0  0  0  0
   -1.8543   -2.6957    0.2533 H   0  0  0  0  0  0  0  0  0  0  0  0
    1.1093   -2.8807    0.4994 H   0  0  0  0  0  0  0  0  0  0  0  0
    3.6042   -1.4672    0.0647 H   0  0  0  0  0  0  0  0  0  0  0  0
    3.5382    1.2738   -0.9578 H   0  0  0  0  0  0  0  0  0  0  0  0
    0.9745    2.5585   -1.4252 H   0  0  0  0  0  0  0  0  0  0  0  0
   -3.5081    2.6733   -1.8418 H   0  0  0  0  0  0  0  0  0  0  0  0
   -5.2199    2.3454   -1.7106 H   0  0  0  0  0  0  0  0  0  0  0  0
   -3.5267    4.0178    0.2113 H   0  0  0  0  0  0  0  0  0  0  0  0
   -4.8366    4.5494   -0.8317 H   0  0  0  0  0  0  0  0  0  0  0  0
   -6.3436    3.2045    0.4556 H   0  0  0  0  0  0  0  0  0  0  0  0
   -4.0023    2.7007    2.1587 H   0  0  0  0  0  0  0  0  0  0  0  0
   -5.6534    2.2444    2.5355 H   0  0  0  0  0  0  0  0  0  0  0  0
   -5.7818    0.6495    0.7392 H   0  0  0  0  0  0  0  0  0  0  0  0
   -4.2782    0.3782    1.6043 H   0  0  0  0  0  0  0  0  0  0  0  0
    2.0163    0.4361    0.9805 H   0  0  0  0  0  0  0  0  0  0  0  0
    1.1332    0.9451    2.4839 H   0  0  0  0  0  0  0  0  0  0  0  0
   -1.0188   -0.5911   -2.2480 H   0  0  0  0  0  0  0  0  0  0  0  0
   -0.1663    2.3281    3.2694 H   0  0  0  0  0  0  0  0  0  0  0  0
  1  2  1  0  0  0  0
  1  7  1  0  0  0  0
  2  3  2  0  0  0  0
  3  4  1  0  0  0  0
  4  5  2  0  0  0  0
  4 11  1  0  0  0  0
  5  6  1  0  0  0  0
  5 25  1  0  0  0  0
  6  1  2  0  0  0  0
  6 26  1  0  0  0  0
  7  8  2  0  0  0  0
  7 27  1  0  0  0  0
  8  9  1  0  0  0  0
  8 28  1  0  0  0  0
  9 10  2  0  0  0  0
  9 29  1  0  0  0  0
 10  2  1  0  0  0  0
 10 30  1  0  0  0  0
 11 12  1  0  0  0  0
 12 13  1  0  0  0  0
 12 31  1  0  0  0  0
 12 32  1  0  0  0  0
 13 14  1  0  0  0  0
 13 33  1  0  0  0  0
 13 34  1  0  0  0  0
 14 15  1  0  0  0  0
 14 35  1  0  0  0  0
 15 16  1  0  0  0  0
 15 36  1  0  0  0  0
 15 37  1  0  0  0  0
 16 11  1  0  0  0  0
 16 38  1  0  0  0  0
 16 39  1  0  0  0  0
 17 18  2  0  0  0  0
 17 20  1  0  0  0  0
 17 40  1  0  0  0  0
 18 19  1  0  0  0  0
 18 41  1  0  0  0  0
 19 23  1  0  0  0  0
 19 24  2  0  0  0  0
 20 21  1  0  0  0  0
 20 22  2  0  0  0  0
 21 42  1  0  0  0  0
 23 43  1  0  0  0  0
M  END
>  <Mol_ID>
3330

>  <Formula>
C17H19N3O4

>  <MolWeight>
329.35046

>  <Cat>
S4409

>  <Name>
Quipazine Maleate

>  <Synonyms>
N/A

>  <Target>
Others

>  <Form>
Maleate

>  <CAS>
5786-68-5

>  <URL>
http://www.selleckchem.com/products/quipazine-maleate.html

$$$$
