R-268712
 OpenBabel08302521343D

 45 48  0  0  0  0  0  0  0  0999 V2000
   -6.0966   -0.8367    0.6165 C   0  0  0  0  0  0  0  0  0  0  0  0
   -3.3096   -0.6861    4.7602 F   0  0  0  0  0  0  0  0  0  0  0  0
   -5.1432    3.5006    6.4124 C   0  0  0  0  0  0  0  0  0  0  0  0
   -5.8653    4.0345    7.6270 C   0  0  0  0  0  0  0  0  0  0  0  0
   -5.8100    3.1025    8.7021 O   0  0  0  0  0  0  0  0  0  0  0  0
   -2.5834    2.9890    0.6903 C   0  0  0  0  0  0  0  0  0  0  0  0
   -3.2490    2.8763   -0.5818 C   0  0  0  0  0  0  0  0  0  0  0  0
   -1.5409    3.8678    0.4778 C   0  0  0  0  0  0  0  0  0  0  0  0
   -2.6456    3.6685   -1.4886 N   0  0  0  0  0  0  0  0  0  0  0  0
   -1.5932    4.1899   -0.8429 N   0  0  0  0  0  0  0  0  0  0  0  0
   -2.7827    2.2524    1.9213 C   0  0  0  0  0  0  0  0  0  0  0  0
   -4.0722    1.9750    2.3939 C   0  0  0  0  0  0  0  0  0  0  0  0
   -1.6878    1.6901    2.5815 C   0  0  0  0  0  0  0  0  0  0  0  0
   -4.2723    1.0293    3.4094 C   0  0  0  0  0  0  0  0  0  0  0  0
   -1.8800    0.6915    3.5291 C   0  0  0  0  0  0  0  0  0  0  0  0
   -3.1669    0.3189    3.8849 C   0  0  0  0  0  0  0  0  0  0  0  0
   -4.4277    2.0574   -0.9272 C   0  0  0  0  0  0  0  0  0  0  0  0
   -4.6658    0.9578   -0.1765 N   0  0  0  0  0  0  0  0  0  0  0  0
   -5.3078    2.4742   -1.9060 C   0  0  0  0  0  0  0  0  0  0  0  0
   -5.8283    0.2857   -0.3427 C   0  0  0  0  0  0  0  0  0  0  0  0
   -6.4865    1.7635   -2.0957 C   0  0  0  0  0  0  0  0  0  0  0  0
   -6.7593    0.6654   -1.2921 C   0  0  0  0  0  0  0  0  0  0  0  0
   -5.5105    1.0488    4.1949 C   0  0  0  0  0  0  0  0  0  0  0  0
   -6.0787    2.2938    4.4475 C   0  0  0  0  0  0  0  0  0  0  0  0
   -5.7482    0.3481    5.4141 C   0  0  0  0  0  0  0  0  0  0  0  0
   -5.8818    2.4003    5.8022 N   0  0  0  0  0  0  0  0  0  0  0  0
   -5.9723    1.2018    6.4222 N   0  0  0  0  0  0  0  0  0  0  0  0
   -5.2387   -1.5181    0.6573 H   0  0  0  0  0  0  0  0  0  0  0  0
   -6.2901   -0.4364    1.6183 H   0  0  0  0  0  0  0  0  0  0  0  0
   -6.9731   -1.4211    0.3113 H   0  0  0  0  0  0  0  0  0  0  0  0
   -4.1451    3.1162    6.6622 H   0  0  0  0  0  0  0  0  0  0  0  0
   -5.0243    4.2831    5.6525 H   0  0  0  0  0  0  0  0  0  0  0  0
   -5.3834    4.9575    7.9630 H   0  0  0  0  0  0  0  0  0  0  0  0
   -6.9116    4.2524    7.3954 H   0  0  0  0  0  0  0  0  0  0  0  0
   -5.9842    2.2138    8.3176 H   0  0  0  0  0  0  0  0  0  0  0  0
   -0.7568    4.2473    1.1181 H   0  0  0  0  0  0  0  0  0  0  0  0
   -0.9325    4.7492   -1.3738 H   0  0  0  0  0  0  0  0  0  0  0  0
   -4.9276    2.4882    1.9571 H   0  0  0  0  0  0  0  0  0  0  0  0
   -0.6755    1.9742    2.3164 H   0  0  0  0  0  0  0  0  0  0  0  0
   -1.0347    0.1968    3.9943 H   0  0  0  0  0  0  0  0  0  0  0  0
   -5.0976    3.3605   -2.5071 H   0  0  0  0  0  0  0  0  0  0  0  0
   -7.2053    2.0806   -2.8476 H   0  0  0  0  0  0  0  0  0  0  0  0
   -7.6950    0.1282   -1.3892 H   0  0  0  0  0  0  0  0  0  0  0  0
   -6.1032    3.1957    3.8546 H   0  0  0  0  0  0  0  0  0  0  0  0
   -5.5576   -0.6942    5.6480 H   0  0  0  0  0  0  0  0  0  0  0  0
  1 20  1  0  0  0  0
  1 28  1  0  0  0  0
  1 29  1  0  0  0  0
  1 30  1  0  0  0  0
  2 16  1  0  0  0  0
  3  4  1  0  0  0  0
  3 26  1  0  0  0  0
  3 31  1  0  0  0  0
  3 32  1  0  0  0  0
  4  5  1  0  0  0  0
  4 33  1  0  0  0  0
  4 34  1  0  0  0  0
  5 35  1  0  0  0  0
  6  7  1  0  0  0  0
  6  8  2  0  0  0  0
  6 11  1  0  0  0  0
  7  9  2  0  0  0  0
  7 17  1  0  0  0  0
  8 10  1  0  0  0  0
  8 36  1  0  0  0  0
  9 10  1  0  0  0  0
 10 37  1  0  0  0  0
 11 12  2  0  0  0  0
 11 13  1  0  0  0  0
 12 14  1  0  0  0  0
 12 38  1  0  0  0  0
 13 15  2  0  0  0  0
 13 39  1  0  0  0  0
 14 16  2  0  0  0  0
 14 23  1  0  0  0  0
 15 16  1  0  0  0  0
 15 40  1  0  0  0  0
 17 18  2  0  0  0  0
 17 19  1  0  0  0  0
 18 20  1  0  0  0  0
 19 21  2  0  0  0  0
 19 41  1  0  0  0  0
 20 22  2  0  0  0  0
 21 22  1  0  0  0  0
 21 42  1  0  0  0  0
 22 43  1  0  0  0  0
 23 24  2  0  0  0  0
 23 25  1  0  0  0  0
 24 26  1  0  0  0  0
 24 44  1  0  0  0  0
 25 27  2  0  0  0  0
 25 45  1  0  0  0  0
 26 27  1  0  0  0  0
M  END
>  <Mol_ID>
6582

>  <Formula>
C20H18FN5O

>  <MolWeight>
363.3882232

>  <Cat>
S7710

>  <Name>
R-268712

>  <Target>
TGF-beta/Smad

>  <Form>
Free base

>  <CAS>
879487-87-3

>  <URL>
http://www.selleckchem.com/products/r-268712.html

$$$$
