(R)-3-Hydroxybutanoic acid
 OpenBabel08302521293D

 15 14  0  0  0  0  0  0  0  0999 V2000
    3.0489   -1.4507   -0.3459 C   0  0  0  0  0  0  0  0  0  0  0  0
    2.5468   -0.0362   -0.0784 C   0  0  2  0  0  0  0  0  0  0  0  0
    1.0254    0.1018   -0.1424 C   0  0  0  0  0  0  0  0  0  0  0  0
    0.4674   -0.2488   -1.5009 C   0  0  0  0  0  0  0  0  0  0  0  0
   -0.7989   -0.7172   -1.4534 O   0  0  0  0  0  0  0  0  0  0  0  0
    1.0712   -0.0950   -2.5513 O   0  0  0  0  0  0  0  0  0  0  0  0
    3.1828    0.8804   -0.9636 O   0  0  0  0  0  0  0  0  0  0  0  0
    2.9653   -1.7187   -1.4043 H   0  0  0  0  0  0  0  0  0  0  0  0
    4.1119   -1.5217   -0.0934 H   0  0  0  0  0  0  0  0  0  0  0  0
    2.5051   -2.1864    0.2523 H   0  0  0  0  0  0  0  0  0  0  0  0
    2.8610    0.2460    0.9330 H   0  0  0  0  0  0  0  0  0  0  0  0
    0.5791   -0.5534    0.6140 H   0  0  0  0  0  0  0  0  0  0  0  0
    0.7300    1.1352    0.0659 H   0  0  0  0  0  0  0  0  0  0  0  0
   -1.1836   -0.7645   -0.5573 H   0  0  0  0  0  0  0  0  0  0  0  0
    2.8686    0.6803   -1.8710 H   0  0  0  0  0  0  0  0  0  0  0  0
  1  8  1  0  0  0  0
  1  9  1  0  0  0  0
  1 10  1  0  0  0  0
  2  7  1  0  0  0  0
  2 11  1  1  0  0  0
  2  3  1  0  0  0  0
  2  1  1  0  0  0  0
  3  4  1  0  0  0  0
  3 12  1  0  0  0  0
  3 13  1  0  0  0  0
  4  5  1  0  0  0  0
  4  6  2  0  0  0  0
  5 14  1  0  0  0  0
  7 15  1  0  0  0  0
M  END
>  <Mol_ID>
5485

>  <Formula>
C4H8O3

>  <MolWeight>
104.10452

>  <Cat>
S3320

>  <Name>
(R)-3-Hydroxybutanoic acid

>  <Synonyms>
R-3HB, D-3-hydroxybutyric acid

>  <Target>
Others

>  <Form>
Free Base

>  <CAS>
625-72-9

>  <URL>
https://www.selleckchem.com/products/r-3-hydroxybutanoic-acid.html

$$$$
