R-IMPP.cdx
 OpenBabel08302520433D

 56 59  0  0  0  0  0  0  0  0999 V2000
    0.1474    0.3984    1.1657 C   0  0  0  0  0  0  0  0  0  0  0  0
    0.1724   -0.9276    0.9178 N   0  0  0  0  0  0  0  0  0  0  0  0
    1.1501   -1.3973    0.0964 C   0  0  0  0  0  0  0  0  0  0  0  0
    2.0174   -0.5223   -0.6262 C   0  0  0  0  0  0  0  0  0  0  0  0
    1.9789    0.8566   -0.3020 C   0  0  0  0  0  0  0  0  0  0  0  0
    1.0362    1.3106    0.6190 C   0  0  0  0  0  0  0  0  0  0  0  0
    2.8766   -0.9070   -1.6863 C   0  0  0  0  0  0  0  0  0  0  0  0
    3.7224    0.0102   -2.3217 C   0  0  0  0  0  0  0  0  0  0  0  0
    3.7436    1.3350   -1.9097 C   0  0  0  0  0  0  0  0  0  0  0  0
    2.8663    1.7588   -0.9129 C   0  0  0  0  0  0  0  0  0  0  0  0
    1.2650   -2.8413    0.0134 N   0  0  0  0  0  0  0  0  0  0  0  0
    2.4821   -3.3944    0.4366 C   0  0  0  0  0  0  0  0  0  0  0  0
   -0.0233   -3.5548   -0.2768 C   0  0  3  0  0  0  0  0  0  0  0  0
    0.0680   -4.5732   -1.4416 C   0  0  0  0  0  0  0  0  0  0  0  0
    0.2863   -5.9675   -1.0554 N   0  0  0  0  0  0  0  0  0  0  0  0
   -0.7172   -6.4462   -0.1130 C   0  0  0  0  0  0  0  0  0  0  0  0
   -0.7725   -5.6158    1.1669 C   0  0  0  0  0  0  0  0  0  0  0  0
   -0.8134   -4.1009    0.9341 C   0  0  0  0  0  0  0  0  0  0  0  0
    2.6156   -4.9052    0.4861 C   0  0  0  0  0  0  0  0  0  0  0  0
    3.7307   -5.4034    1.4045 C   0  0  0  0  0  0  0  0  0  0  0  0
    3.8517   -6.9153    1.4158 C   0  0  0  0  0  0  0  0  0  0  0  0
    3.4630   -2.7081    0.7435 O   0  0  0  0  0  0  0  0  0  0  0  0
    4.6997   -7.5548    0.5055 C   0  0  0  0  0  0  0  0  0  0  0  0
    4.8884   -8.9458    0.5377 C   0  0  0  0  0  0  0  0  0  0  0  0
    4.2212   -9.7234    1.4802 C   0  0  0  0  0  0  0  0  0  0  0  0
    3.3371   -9.0963    2.3663 C   0  0  0  0  0  0  0  0  0  0  0  0
    3.1481   -7.7074    2.3341 C   0  0  0  0  0  0  0  0  0  0  0  0
    4.3415  -11.0798    1.6332 O   0  0  0  0  0  0  0  0  0  0  0  0
    5.3215  -11.7283    0.8286 C   0  0  0  0  0  0  0  0  0  0  0  0
   -0.6254    0.7316    1.8511 H   0  0  0  0  0  0  0  0  0  0  0  0
    0.9643    2.3602    0.8845 H   0  0  0  0  0  0  0  0  0  0  0  0
    2.8743   -1.9354   -2.0381 H   0  0  0  0  0  0  0  0  0  0  0  0
    4.3703   -0.3176   -3.1305 H   0  0  0  0  0  0  0  0  0  0  0  0
    4.4326    2.0426   -2.3686 H   0  0  0  0  0  0  0  0  0  0  0  0
    2.8799    2.8086   -0.6208 H   0  0  0  0  0  0  0  0  0  0  0  0
   -0.6686   -2.7655   -0.6925 H   0  0  0  0  0  0  0  0  0  0  0  0
   -0.8629   -4.5273   -2.0208 H   0  0  0  0  0  0  0  0  0  0  0  0
    0.8697   -4.2717   -2.1262 H   0  0  0  0  0  0  0  0  0  0  0  0
    0.2879   -6.5607   -1.8855 H   0  0  0  0  0  0  0  0  0  0  0  0
   -0.4709   -7.4825    0.1553 H   0  0  0  0  0  0  0  0  0  0  0  0
   -1.7014   -6.4733   -0.5930 H   0  0  0  0  0  0  0  0  0  0  0  0
    0.0666   -5.8717    1.8224 H   0  0  0  0  0  0  0  0  0  0  0  0
   -1.6622   -5.9136    1.7372 H   0  0  0  0  0  0  0  0  0  0  0  0
   -0.5440   -3.5765    1.8576 H   0  0  0  0  0  0  0  0  0  0  0  0
   -1.8709   -3.8599    0.7533 H   0  0  0  0  0  0  0  0  0  0  0  0
    1.7027   -5.3214    0.8777 H   0  0  0  0  0  0  0  0  0  0  0  0
    2.7856   -5.2621   -0.5344 H   0  0  0  0  0  0  0  0  0  0  0  0
    4.6956   -4.9753    1.1080 H   0  0  0  0  0  0  0  0  0  0  0  0
    3.5549   -5.0548    2.4301 H   0  0  0  0  0  0  0  0  0  0  0  0
    5.2444   -6.9745   -0.2330 H   0  0  0  0  0  0  0  0  0  0  0  0
    5.5719   -9.3845   -0.1815 H   0  0  0  0  0  0  0  0  0  0  0  0
    2.7994   -9.6994    3.1002 H   0  0  0  0  0  0  0  0  0  0  0  0
    2.4636   -7.2544    3.0485 H   0  0  0  0  0  0  0  0  0  0  0  0
    5.0704  -11.6488   -0.2342 H   0  0  0  0  0  0  0  0  0  0  0  0
    6.3248  -11.3354    1.0275 H   0  0  0  0  0  0  0  0  0  0  0  0
    5.3255  -12.7917    1.0880 H   0  0  0  0  0  0  0  0  0  0  0  0
  1  2  2  0  0  0  0
  1 30  1  0  0  0  0
  3  2  1  0  0  0  0
  3  4  2  0  0  0  0
  4  5  1  0  0  0  0
  4  7  1  0  0  0  0
  5  6  2  0  0  0  0
  6  1  1  0  0  0  0
  6 31  1  0  0  0  0
  7  8  2  0  0  0  0
  7 32  1  0  0  0  0
  8  9  1  0  0  0  0
  8 33  1  0  0  0  0
  9 10  2  0  0  0  0
  9 34  1  0  0  0  0
 10  5  1  0  0  0  0
 10 35  1  0  0  0  0
 11  3  1  0  0  0  0
 11 12  1  0  0  0  0
 11 13  1  0  0  0  0
 12 19  1  0  0  0  0
 12 22  2  0  0  0  0
 13 14  1  0  0  0  0
 13 36  1  0  0  0  0
 14 15  1  0  0  0  0
 14 37  1  0  0  0  0
 14 38  1  0  0  0  0
 15 16  1  0  0  0  0
 15 39  1  0  0  0  0
 16 17  1  0  0  0  0
 16 40  1  0  0  0  0
 16 41  1  0  0  0  0
 17 18  1  0  0  0  0
 17 42  1  0  0  0  0
 17 43  1  0  0  0  0
 18 13  1  0  0  0  0
 18 44  1  0  0  0  0
 18 45  1  0  0  0  0
 19 20  1  0  0  0  0
 19 46  1  0  0  0  0
 19 47  1  0  0  0  0
 20 21  1  0  0  0  0
 20 48  1  0  0  0  0
 20 49  1  0  0  0  0
 21 23  2  0  0  0  0
 23 24  1  0  0  0  0
 23 50  1  0  0  0  0
 24 25  2  0  0  0  0
 24 51  1  0  0  0  0
 25 26  1  0  0  0  0
 25 28  1  0  0  0  0
 26 27  2  0  0  0  0
 26 52  1  0  0  0  0
 27 21  1  0  0  0  0
 27 53  1  0  0  0  0
 28 29  1  0  0  0  0
 29 54  1  0  0  0  0
 29 55  1  0  0  0  0
 29 56  1  0  0  0  0
M  END
>  <Mol_ID>
4162

>  <Formula>
C24H27N3O2

>  <MolWeight>
389.49008

>  <Cat>
S8420

>  <Name>
R-IMPP

>  <Synonyms>
N/A

>  <Target>
PCSK9

>  <Form>
free base

>  <CAS>
2133832-83-2

>  <URL>
http://selleckchem.com/products/r-impp.html

$$$$
