R112
 OpenBabel08302520403D

 36 38  0  0  0  0  0  0  0  0999 V2000
   -2.2350    0.0961    0.0452 F   0  0  0  0  0  0  0  0  0  0  0  0
   -0.5718    7.2664   -0.6827 O   0  0  0  0  0  0  0  0  0  0  0  0
    4.1160   -3.4128    3.2175 O   0  0  0  0  0  0  0  0  0  0  0  0
   -0.7838    2.4590   -0.1638 N   0  0  0  0  0  0  0  0  0  0  0  0
    3.2002   -0.0723   -0.1857 N   0  0  0  0  0  0  0  0  0  0  0  0
    1.2194    1.1573   -0.1811 N   0  0  0  0  0  0  0  0  0  0  0  0
    1.1238   -1.1980   -0.0496 N   0  0  0  0  0  0  0  0  0  0  0  0
   -0.3342    3.6037   -0.8478 C   0  0  0  0  0  0  0  0  0  0  0  0
   -0.1302    1.2111   -0.1043 C   0  0  0  0  0  0  0  0  0  0  0  0
    4.0587   -0.9897    0.4461 C   0  0  0  0  0  0  0  0  0  0  0  0
    1.8080   -0.0437   -0.1314 C   0  0  0  0  0  0  0  0  0  0  0  0
   -0.6874    4.8814   -0.3983 C   0  0  0  0  0  0  0  0  0  0  0  0
    0.4214    3.4912   -2.0264 C   0  0  0  0  0  0  0  0  0  0  0  0
    3.6420   -1.7531    1.5504 C   0  0  0  0  0  0  0  0  0  0  0  0
    5.3552   -1.1710   -0.0369 C   0  0  0  0  0  0  0  0  0  0  0  0
   -0.8981    0.0644   -0.0005 C   0  0  0  0  0  0  0  0  0  0  0  0
   -0.2627    6.0071   -1.1043 C   0  0  0  0  0  0  0  0  0  0  0  0
    4.5068   -2.6685    2.1420 C   0  0  0  0  0  0  0  0  0  0  0  0
    0.8326    4.6210   -2.7329 C   0  0  0  0  0  0  0  0  0  0  0  0
    0.4914    5.8848   -2.2659 C   0  0  0  0  0  0  0  0  0  0  0  0
    6.2178   -2.0987    0.5583 C   0  0  0  0  0  0  0  0  0  0  0  0
    5.7922   -2.8474    1.6533 C   0  0  0  0  0  0  0  0  0  0  0  0
   -0.2166   -1.1236   -0.0016 C   0  0  0  0  0  0  0  0  0  0  0  0
   -1.0607    7.2041    0.1525 H   0  0  0  0  0  0  0  0  0  0  0  0
    3.1872   -3.2022    3.4104 H   0  0  0  0  0  0  0  0  0  0  0  0
   -1.3517    2.6303    0.6552 H   0  0  0  0  0  0  0  0  0  0  0  0
    3.5579    0.8735   -0.2363 H   0  0  0  0  0  0  0  0  0  0  0  0
   -1.2836    4.9929    0.5003 H   0  0  0  0  0  0  0  0  0  0  0  0
    0.6838    2.5108   -2.4169 H   0  0  0  0  0  0  0  0  0  0  0  0
    2.6443   -1.6222    1.9553 H   0  0  0  0  0  0  0  0  0  0  0  0
    5.6982   -0.6123   -0.9051 H   0  0  0  0  0  0  0  0  0  0  0  0
    1.4104    4.5076   -3.6442 H   0  0  0  0  0  0  0  0  0  0  0  0
    0.8089    6.7715   -2.8063 H   0  0  0  0  0  0  0  0  0  0  0  0
    7.2199   -2.2448    0.1614 H   0  0  0  0  0  0  0  0  0  0  0  0
    6.4544   -3.5701    2.1212 H   0  0  0  0  0  0  0  0  0  0  0  0
   -0.7443   -2.0715    0.0319 H   0  0  0  0  0  0  0  0  0  0  0  0
  1 16  1  0  0  0  0
  2 17  1  0  0  0  0
  2 24  1  0  0  0  0
  3 18  1  0  0  0  0
  3 25  1  0  0  0  0
  4  8  1  0  0  0  0
  4  9  1  0  0  0  0
  4 26  1  0  0  0  0
  5 10  1  0  0  0  0
  5 11  1  0  0  0  0
  5 27  1  0  0  0  0
  6  9  2  0  0  0  0
  6 11  1  0  0  0  0
  7 11  2  0  0  0  0
  7 23  1  0  0  0  0
  8 12  2  0  0  0  0
  8 13  1  0  0  0  0
  9 16  1  0  0  0  0
 10 14  2  0  0  0  0
 10 15  1  0  0  0  0
 12 17  1  0  0  0  0
 12 28  1  0  0  0  0
 13 19  2  0  0  0  0
 13 29  1  0  0  0  0
 14 18  1  0  0  0  0
 14 30  1  0  0  0  0
 15 21  2  0  0  0  0
 15 31  1  0  0  0  0
 16 23  2  0  0  0  0
 17 20  2  0  0  0  0
 18 22  2  0  0  0  0
 19 20  1  0  0  0  0
 19 32  1  0  0  0  0
 20 33  1  0  0  0  0
 21 22  1  0  0  0  0
 21 34  1  0  0  0  0
 22 35  1  0  0  0  0
 23 36  1  0  0  0  0
M  END
>  <Mol_ID>
3816

>  <Formula>
C16H13FN4O2

>  <MolWeight>
312.2984232

>  <Cat>
S6519

>  <Name>
R112

>  <Synonyms>
N/A

>  <Target>
Syk

>  <Form>
free base

>  <CAS>
575474-82-7

>  <URL>
http://www.selleck.cn/products/r112.html

$$$$
