R547.cdx
 OpenBabel08302521423D

 51 53  0  0  0  0  0  0  0  0999 V2000
    0.4026   -0.9161   -0.6647 N   0  0  0  0  0  0  0  0  0  0  0  0
   -0.9119   -1.1518   -0.5569 C   0  0  0  0  0  0  0  0  0  0  0  0
   -1.8115   -0.1953   -0.3044 N   0  0  0  0  0  0  0  0  0  0  0  0
   -1.3269    1.0495   -0.0670 C   0  0  0  0  0  0  0  0  0  0  0  0
    0.0143    1.3607   -0.0299 C   0  0  0  0  0  0  0  0  0  0  0  0
    0.8562    0.3239   -0.3854 C   0  0  0  0  0  0  0  0  0  0  0  0
    2.2450    0.4365   -0.3273 N   0  0  0  0  0  0  0  0  0  0  0  0
    0.5334    2.6940    0.3867 C   0  0  0  0  0  0  0  0  0  0  0  0
   -0.0502    3.4375    1.5515 C   0  0  0  0  0  0  0  0  0  0  0  0
    1.4819    3.1543   -0.2410 O   0  0  0  0  0  0  0  0  0  0  0  0
   -0.6770    2.7064    2.5753 C   0  0  0  0  0  0  0  0  0  0  0  0
   -1.3138    3.3456    3.6304 C   0  0  0  0  0  0  0  0  0  0  0  0
   -1.3044    4.7238    3.7305 C   0  0  0  0  0  0  0  0  0  0  0  0
   -0.6236    5.4719    2.7740 C   0  0  0  0  0  0  0  0  0  0  0  0
    0.0214    4.8469    1.6921 C   0  0  0  0  0  0  0  0  0  0  0  0
   -0.6774    1.3657    2.5727 F   0  0  0  0  0  0  0  0  0  0  0  0
   -1.9616    2.6238    4.5529 F   0  0  0  0  0  0  0  0  0  0  0  0
    0.6655    5.5824    0.7268 O   0  0  0  0  0  0  0  0  0  0  0  0
    1.2719    6.8039    1.1609 C   0  0  0  0  0  0  0  0  0  0  0  0
   -1.4048   -2.4667   -0.5964 N   0  0  0  0  0  0  0  0  0  0  0  0
   -0.4582   -3.4771   -0.0944 C   0  0  0  0  0  0  0  0  0  0  0  0
    0.2760   -4.1643   -1.2467 C   0  0  0  0  0  0  0  0  0  0  0  0
   -0.5703   -5.1874   -1.9969 C   0  0  0  0  0  0  0  0  0  0  0  0
   -1.2220   -6.1515   -1.0740 N   0  0  0  0  0  0  0  0  0  0  0  0
   -1.9875   -5.5208    0.0258 C   0  0  0  0  0  0  0  0  0  0  0  0
   -1.1411   -4.5201    0.7930 C   0  0  0  0  0  0  0  0  0  0  0  0
   -2.0002   -7.4799   -1.8260 S   0  0  0  0  0  0  0  0  0  0  0  0
   -2.5354   -8.3291   -0.7828 O   0  0  0  0  0  0  0  0  0  0  0  0
   -3.3831   -6.7122   -2.6584 C   0  0  0  0  0  0  0  0  0  0  0  0
   -1.1146   -8.0105   -2.8400 O   0  0  0  0  0  0  0  0  0  0  0  0
   -2.0941    1.7906    0.1411 H   0  0  0  0  0  0  0  0  0  0  0  0
    2.6669   -0.3700   -0.7766 H   0  0  0  0  0  0  0  0  0  0  0  0
    2.5700    1.3357   -0.6838 H   0  0  0  0  0  0  0  0  0  0  0  0
   -1.8221    5.2106    4.5521 H   0  0  0  0  0  0  0  0  0  0  0  0
   -0.6375    6.5500    2.8827 H   0  0  0  0  0  0  0  0  0  0  0  0
    0.5246    7.5442    1.4652 H   0  0  0  0  0  0  0  0  0  0  0  0
    1.9909    6.6255    1.9691 H   0  0  0  0  0  0  0  0  0  0  0  0
    1.8140    7.2381    0.3155 H   0  0  0  0  0  0  0  0  0  0  0  0
   -2.2879   -2.3991   -0.1003 H   0  0  0  0  0  0  0  0  0  0  0  0
    0.2868   -2.9981    0.5536 H   0  0  0  0  0  0  0  0  0  0  0  0
    0.6546   -3.4253   -1.9629 H   0  0  0  0  0  0  0  0  0  0  0  0
    1.1550   -4.6761   -0.8334 H   0  0  0  0  0  0  0  0  0  0  0  0
   -1.3238   -4.6832   -2.6084 H   0  0  0  0  0  0  0  0  0  0  0  0
    0.1019   -5.7370   -2.6670 H   0  0  0  0  0  0  0  0  0  0  0  0
   -2.3024   -6.2954    0.7352 H   0  0  0  0  0  0  0  0  0  0  0  0
   -2.8828   -5.0300   -0.3638 H   0  0  0  0  0  0  0  0  0  0  0  0
   -0.3577   -5.0727    1.3306 H   0  0  0  0  0  0  0  0  0  0  0  0
   -1.7582   -4.0324    1.5569 H   0  0  0  0  0  0  0  0  0  0  0  0
   -3.0151   -6.0852   -3.4714 H   0  0  0  0  0  0  0  0  0  0  0  0
   -4.0106   -7.5085   -3.0657 H   0  0  0  0  0  0  0  0  0  0  0  0
   -3.9692   -6.1323   -1.9453 H   0  0  0  0  0  0  0  0  0  0  0  0
  1  2  2  0  0  0  0
  2  3  1  0  0  0  0
  2 20  1  0  0  0  0
  3  4  2  0  0  0  0
  4  5  1  0  0  0  0
  4 31  1  0  0  0  0
  5  6  2  0  0  0  0
  5  8  1  0  0  0  0
  6  1  1  0  0  0  0
  6  7  1  0  0  0  0
  7 32  1  0  0  0  0
  7 33  1  0  0  0  0
  8  9  1  0  0  0  0
  8 10  2  0  0  0  0
  9 11  2  0  0  0  0
 11 12  1  0  0  0  0
 11 16  1  0  0  0  0
 12 13  2  0  0  0  0
 12 17  1  0  0  0  0
 13 14  1  0  0  0  0
 13 34  1  0  0  0  0
 14 15  2  0  0  0  0
 14 35  1  0  0  0  0
 15  9  1  0  0  0  0
 15 18  1  0  0  0  0
 18 19  1  0  0  0  0
 19 36  1  0  0  0  0
 19 37  1  0  0  0  0
 19 38  1  0  0  0  0
 20 21  1  0  0  0  0
 20 39  1  0  0  0  0
 21 22  1  0  0  0  0
 21 40  1  0  0  0  0
 22 23  1  0  0  0  0
 22 41  1  0  0  0  0
 22 42  1  0  0  0  0
 23 24  1  0  0  0  0
 23 43  1  0  0  0  0
 23 44  1  0  0  0  0
 24 25  1  0  0  0  0
 24 27  1  0  0  0  0
 25 26  1  0  0  0  0
 25 45  1  0  0  0  0
 25 46  1  0  0  0  0
 26 21  1  0  0  0  0
 26 47  1  0  0  0  0
 26 48  1  0  0  0  0
 27 28  2  0  0  0  0
 27 29  1  0  0  0  0
 27 30  2  0  0  0  0
 29 49  1  0  0  0  0
 29 50  1  0  0  0  0
 29 51  1  0  0  0  0
M  END
>  <Mol_ID>
844

>  <Formula>
C18H21F2N5O4S

>  <MolWeight>
441.4522464

>  <Cat>
S2688

>  <Name>
R547

>  <Synonyms>
Ro 4584820

>  <Target>
CDK

>  <Form>
free base

>  <CAS>
741713-40-6

>  <URL>
http://selleckchem.com/products/r547.html

$$$$
