Rabeprazole Related Compound E
 OpenBabel08302520403D

 45 47  0  0  0  0  0  0  0  0999 V2000
   -5.7486    0.5895    1.3413 C   0  0  0  0  0  0  0  0  0  0  0  0
   -5.1524    0.0797    2.3926 N   0  0  0  0  0  0  0  0  0  0  0  0
   -6.4535    1.7183    1.6415 N   0  0  0  0  0  0  0  0  0  0  0  0
   -5.4898    0.9157    3.4271 C   0  0  0  0  0  0  0  0  0  0  0  0
   -4.6041   -3.6591   -1.3259 C   0  0  0  0  0  0  0  0  0  0  0  0
   -6.3113    1.9520    2.9883 C   0  0  0  0  0  0  0  0  0  0  0  0
   -5.7301   -0.0392   -0.2674 S   0  0  0  0  0  0  0  0  0  0  0  0
   -4.3416   -2.2717   -1.2725 C   0  0  0  0  0  0  0  0  0  0  0  0
   -3.7355   -1.6092   -2.2945 N   0  0  0  0  0  0  0  0  0  0  0  0
   -4.1343   -4.3742   -2.4473 C   0  0  0  0  0  0  0  0  0  0  0  0
   -4.5873   -1.4417   -0.0242 C   0  0  0  0  0  0  0  0  0  0  0  0
   -3.3941   -2.3078   -3.3870 C   0  0  0  0  0  0  0  0  0  0  0  0
   -3.5725   -3.6687   -3.5101 C   0  0  0  0  0  0  0  0  0  0  0  0
   -4.2238   -5.7524   -2.4371 O   0  0  0  0  0  0  0  0  0  0  0  0
   -3.1539   -7.8939   -2.9698 C   0  0  0  0  0  0  0  0  0  0  0  0
   -5.3291   -4.3434   -0.2007 C   0  0  0  0  0  0  0  0  0  0  0  0
   -0.8757   -7.9769   -3.7905 O   0  0  0  0  0  0  0  0  0  0  0  0
   -5.1343    0.8493    4.7824 C   0  0  0  0  0  0  0  0  0  0  0  0
   -6.8043    2.9452    3.8376 C   0  0  0  0  0  0  0  0  0  0  0  0
   -3.3131   -6.4194   -3.3339 C   0  0  0  0  0  0  0  0  0  0  0  0
   -2.1578   -8.5999   -3.8928 C   0  0  0  0  0  0  0  0  0  0  0  0
    0.0944   -8.6019   -4.6239 C   0  0  0  0  0  0  0  0  0  0  0  0
   -6.4392    2.8568    5.1876 C   0  0  0  0  0  0  0  0  0  0  0  0
   -5.6182    1.8300    5.6558 C   0  0  0  0  0  0  0  0  0  0  0  0
   -6.9876    2.2685    0.9859 H   0  0  0  0  0  0  0  0  0  0  0  0
   -3.6172   -1.0514    0.3071 H   0  0  0  0  0  0  0  0  0  0  0  0
   -4.9771   -2.0518    0.7938 H   0  0  0  0  0  0  0  0  0  0  0  0
   -2.9308   -1.7339   -4.1829 H   0  0  0  0  0  0  0  0  0  0  0  0
   -3.2513   -4.1470   -4.4257 H   0  0  0  0  0  0  0  0  0  0  0  0
   -2.8116   -7.9629   -1.9301 H   0  0  0  0  0  0  0  0  0  0  0  0
   -4.1255   -8.3982   -3.0169 H   0  0  0  0  0  0  0  0  0  0  0  0
   -4.6911   -4.4030    0.6863 H   0  0  0  0  0  0  0  0  0  0  0  0
   -6.2418   -3.7877    0.0501 H   0  0  0  0  0  0  0  0  0  0  0  0
   -5.6543   -5.3543   -0.4609 H   0  0  0  0  0  0  0  0  0  0  0  0
   -4.4957    0.0471    5.1376 H   0  0  0  0  0  0  0  0  0  0  0  0
   -7.4422    3.7480    3.4815 H   0  0  0  0  0  0  0  0  0  0  0  0
   -3.7106   -6.3481   -4.3539 H   0  0  0  0  0  0  0  0  0  0  0  0
   -2.3262   -5.9445   -3.2834 H   0  0  0  0  0  0  0  0  0  0  0  0
   -2.0677   -9.6512   -3.5978 H   0  0  0  0  0  0  0  0  0  0  0  0
   -2.5008   -8.5556   -4.9334 H   0  0  0  0  0  0  0  0  0  0  0  0
    0.1712   -9.6701   -4.3986 H   0  0  0  0  0  0  0  0  0  0  0  0
   -0.1571   -8.4566   -5.6790 H   0  0  0  0  0  0  0  0  0  0  0  0
    1.0660   -8.1370   -4.4322 H   0  0  0  0  0  0  0  0  0  0  0  0
   -6.8015    3.6091    5.8908 H   0  0  0  0  0  0  0  0  0  0  0  0
   -5.3508    1.7861    6.7093 H   0  0  0  0  0  0  0  0  0  0  0  0
  2  1  2  0  0  0  0
  3  1  1  0  0  0  0
  3 25  1  0  0  0  0
  4  2  1  0  0  0  0
  4  6  2  0  0  0  0
  5  8  2  0  0  0  0
  6  3  1  0  0  0  0
  7  1  1  0  0  0  0
  8 11  1  0  0  0  0
  9  8  1  0  0  0  0
 10  5  1  0  0  0  0
 10 13  2  0  0  0  0
 11  7  1  0  0  0  0
 11 26  1  0  0  0  0
 11 27  1  0  0  0  0
 12  9  2  0  0  0  0
 12 28  1  0  0  0  0
 13 12  1  0  0  0  0
 13 29  1  0  0  0  0
 14 10  1  0  0  0  0
 15 20  1  0  0  0  0
 15 30  1  0  0  0  0
 15 31  1  0  0  0  0
 16  5  1  0  0  0  0
 16 32  1  0  0  0  0
 16 33  1  0  0  0  0
 16 34  1  0  0  0  0
 17 21  1  0  0  0  0
 18  4  1  0  0  0  0
 18 35  1  0  0  0  0
 19  6  1  0  0  0  0
 19 36  1  0  0  0  0
 20 14  1  0  0  0  0
 20 37  1  0  0  0  0
 20 38  1  0  0  0  0
 21 15  1  0  0  0  0
 21 39  1  0  0  0  0
 21 40  1  0  0  0  0
 22 17  1  0  0  0  0
 22 41  1  0  0  0  0
 22 42  1  0  0  0  0
 22 43  1  0  0  0  0
 23 19  2  0  0  0  0
 23 24  1  0  0  0  0
 23 44  1  0  0  0  0
 24 18  2  0  0  0  0
 24 45  1  0  0  0  0
M  END
>  <Mol_ID>
3710

>  <Formula>
C18H21N3O2S

>  <MolWeight>
343.44324

>  <Cat>
S5885

>  <Name>
Rabeprazole Related Compound E

>  <Synonyms>
Rabeprazole thioether

>  <Target>
Proton Pump

>  <Form>
Free Base

>  <CAS>
117977-21-6

>  <URL>
http://www.selleck.cn/products/rabeprazole-related-compound-e.html

$$$$
