(Rac)-Antineoplaston A10
 OpenBabel08302521323D

 32 33  0  0  0  0  0  0  0  0999 V2000
    2.5855   -1.3696    1.4675 C   0  0  0  0  0  0  0  0  0  0  0  0
    3.3634   -2.4947    1.1986 C   0  0  0  0  0  0  0  0  0  0  0  0
    3.1390   -3.6930    1.8821 C   0  0  0  0  0  0  0  0  0  0  0  0
    2.1794   -3.7593    2.8900 C   0  0  0  0  0  0  0  0  0  0  0  0
    1.4805   -2.6136    3.2521 C   0  0  0  0  0  0  0  0  0  0  0  0
    1.6838   -1.4286    2.5469 C   0  0  0  0  0  0  0  0  0  0  0  0
    3.6045    0.1119   -0.4396 C   0  0  0  0  0  0  0  0  0  0  0  0
    2.5744   -0.1159    0.6303 C   0  0  0  0  0  0  0  0  0  0  0  0
    4.4747    0.9788   -0.3012 O   0  0  0  0  0  0  0  0  0  0  0  0
    3.5700   -0.4688   -1.6668 N   0  0  0  0  0  0  0  0  0  0  0  0
    3.2841   -1.3281   -4.5990 N   0  0  0  0  0  0  0  0  0  0  0  0
    2.3882   -1.4606   -3.5587 C   0  0  0  0  0  0  0  0  0  0  0  0
    3.0173   -1.7273   -2.1850 C   0  0  3  0  0  0  0  0  0  0  0  0
    4.1332   -2.7561   -2.4323 C   0  0  0  0  0  0  0  0  0  0  0  0
    5.2171   -2.1737   -3.3424 C   0  0  0  0  0  0  0  0  0  0  0  0
    4.6506   -1.3481   -4.4830 C   0  0  0  0  0  0  0  0  0  0  0  0
    5.3666   -0.6978   -5.2377 O   0  0  0  0  0  0  0  0  0  0  0  0
    1.1882   -1.2657   -3.7258 O   0  0  0  0  0  0  0  0  0  0  0  0
    4.1441   -2.4629    0.4501 H   0  0  0  0  0  0  0  0  0  0  0  0
    3.7076   -4.5816    1.6206 H   0  0  0  0  0  0  0  0  0  0  0  0
    1.9849   -4.6985    3.4000 H   0  0  0  0  0  0  0  0  0  0  0  0
    0.7605   -2.6446    4.0658 H   0  0  0  0  0  0  0  0  0  0  0  0
    1.1148   -0.5445    2.8316 H   0  0  0  0  0  0  0  0  0  0  0  0
    1.5847   -0.0082    0.1706 H   0  0  0  0  0  0  0  0  0  0  0  0
    2.6884    0.7312    1.3237 H   0  0  0  0  0  0  0  0  0  0  0  0
    4.2245    0.0156   -2.2725 H   0  0  0  0  0  0  0  0  0  0  0  0
    2.9123   -0.8843   -5.4284 H   0  0  0  0  0  0  0  0  0  0  0  0
    2.2571   -2.1337   -1.5055 H   0  0  0  0  0  0  0  0  0  0  0  0
    3.7114   -3.6513   -2.9085 H   0  0  0  0  0  0  0  0  0  0  0  0
    4.5995   -3.0885   -1.5021 H   0  0  0  0  0  0  0  0  0  0  0  0
    5.8225   -2.9811   -3.7685 H   0  0  0  0  0  0  0  0  0  0  0  0
    5.8850   -1.5286   -2.7583 H   0  0  0  0  0  0  0  0  0  0  0  0
  1  2  2  0  0  0  0
  1  6  1  0  0  0  0
  1  8  1  0  0  0  0
  2  3  1  0  0  0  0
  2 19  1  0  0  0  0
  3  4  2  0  0  0  0
  3 20  1  0  0  0  0
  4  5  1  0  0  0  0
  4 21  1  0  0  0  0
  5  6  2  0  0  0  0
  5 22  1  0  0  0  0
  6 23  1  0  0  0  0
  7  8  1  0  0  0  0
  7  9  2  0  0  0  0
  7 10  1  0  0  0  0
  8 24  1  0  0  0  0
  8 25  1  0  0  0  0
 10 13  1  0  0  0  0
 10 26  1  0  0  0  0
 11 12  1  0  0  0  0
 11 16  1  0  0  0  0
 11 27  1  0  0  0  0
 12 13  1  0  0  0  0
 12 18  2  0  0  0  0
 13 14  1  0  0  0  0
 13 28  1  0  0  0  0
 14 15  1  0  0  0  0
 14 29  1  0  0  0  0
 14 30  1  0  0  0  0
 15 16  1  0  0  0  0
 15 31  1  0  0  0  0
 15 32  1  0  0  0  0
 16 17  2  0  0  0  0
M  END
>  <Mol_ID>
6175

>  <Formula>
C13H14N2O3

>  <MolWeight>
246.26186

>  <Cat>
S0730

>  <Name>
(Rac)-Antineoplaston A10

>  <Synonyms>
N/A

>  <Target>
Ras

>  <Form>
free base

>  <CAS>
77658-84-5

>  <URL>
http://www.selleckchem.com/products/-rac--antineoplaston-a10.html

$$$$
