Radiprodil (RGH-896)
 OpenBabel08302521223D

 49 52  0  0  0  0  0  0  0  0999 V2000
   -5.2007   -2.7343    4.6757 F   0  0  0  0  0  0  0  0  0  0  0  0
   -0.2517   -3.1337   -3.8242 O   0  0  0  0  0  0  0  0  0  0  0  0
   -1.4001   -0.5030   -5.7379 O   0  0  0  0  0  0  0  0  0  0  0  0
    1.3154    2.1561   -8.8707 O   0  0  0  0  0  0  0  0  0  0  0  0
    2.3910    3.2389  -10.6118 O   0  0  0  0  0  0  0  0  0  0  0  0
   -1.8371   -1.5914   -3.0813 N   0  0  0  0  0  0  0  0  0  0  0  0
    0.5681   -1.7199   -5.9488 N   0  0  0  0  0  0  0  0  0  0  0  0
    2.8453    1.0257  -10.1473 N   0  0  0  0  0  0  0  0  0  0  0  0
   -3.9254   -0.6995   -1.1879 C   0  0  0  0  0  0  0  0  0  0  0  0
   -3.5231   -2.1775   -1.3468 C   0  0  0  0  0  0  0  0  0  0  0  0
   -3.5695    0.0751   -2.4642 C   0  0  0  0  0  0  0  0  0  0  0  0
   -2.1131   -2.3971   -1.8977 C   0  0  0  0  0  0  0  0  0  0  0  0
   -2.1417   -0.1663   -2.9454 C   0  0  0  0  0  0  0  0  0  0  0  0
   -3.3552   -0.0226    0.0835 C   0  0  0  0  0  0  0  0  0  0  0  0
   -3.8567   -0.6517    1.3692 C   0  0  0  0  0  0  0  0  0  0  0  0
   -0.8813   -2.0896   -3.9938 C   0  0  0  0  0  0  0  0  0  0  0  0
   -2.9471   -1.1396    2.3194 C   0  0  0  0  0  0  0  0  0  0  0  0
   -5.2338   -0.7920    1.6152 C   0  0  0  0  0  0  0  0  0  0  0  0
   -0.6030   -1.3220   -5.3069 C   0  0  0  0  0  0  0  0  0  0  0  0
   -3.4038   -1.8310    3.4438 C   0  0  0  0  0  0  0  0  0  0  0  0
   -5.6877   -1.4942    2.7323 C   0  0  0  0  0  0  0  0  0  0  0  0
   -4.7676   -2.0235    3.6263 C   0  0  0  0  0  0  0  0  0  0  0  0
    1.1471   -1.0668   -7.0617 C   0  0  0  0  0  0  0  0  0  0  0  0
    0.8361    0.2624   -7.3798 C   0  0  0  0  0  0  0  0  0  0  0  0
    2.1028   -1.7648   -7.8377 C   0  0  0  0  0  0  0  0  0  0  0  0
    1.4812    0.8456   -8.4465 C   0  0  0  0  0  0  0  0  0  0  0  0
    2.3992    0.1531   -9.2006 C   0  0  0  0  0  0  0  0  0  0  0  0
    2.7330   -1.1522   -8.9374 C   0  0  0  0  0  0  0  0  0  0  0  0
    2.2045    2.2345   -9.9465 C   0  0  0  0  0  0  0  0  0  0  0  0
    0.9602   -2.5978   -5.6236 H   0  0  0  0  0  0  0  0  0  0  0  0
    3.5335    0.8779  -10.8690 H   0  0  0  0  0  0  0  0  0  0  0  0
   -5.0200   -0.6705   -1.1100 H   0  0  0  0  0  0  0  0  0  0  0  0
   -3.6319   -2.7221   -0.4023 H   0  0  0  0  0  0  0  0  0  0  0  0
   -4.2362   -2.6396   -2.0428 H   0  0  0  0  0  0  0  0  0  0  0  0
   -4.2613   -0.2394   -3.2572 H   0  0  0  0  0  0  0  0  0  0  0  0
   -3.7344    1.1491   -2.3173 H   0  0  0  0  0  0  0  0  0  0  0  0
   -1.3563   -2.1527   -1.1443 H   0  0  0  0  0  0  0  0  0  0  0  0
   -1.9974   -3.4600   -2.1427 H   0  0  0  0  0  0  0  0  0  0  0  0
   -1.9961    0.3859   -3.8701 H   0  0  0  0  0  0  0  0  0  0  0  0
   -1.4190    0.2467   -2.2327 H   0  0  0  0  0  0  0  0  0  0  0  0
   -3.6444    1.0369    0.1016 H   0  0  0  0  0  0  0  0  0  0  0  0
   -2.2592   -0.0407    0.0597 H   0  0  0  0  0  0  0  0  0  0  0  0
   -1.8766   -1.0065    2.1806 H   0  0  0  0  0  0  0  0  0  0  0  0
   -5.9662   -0.3816    0.9237 H   0  0  0  0  0  0  0  0  0  0  0  0
   -2.7048   -2.2361    4.1682 H   0  0  0  0  0  0  0  0  0  0  0  0
   -6.7494   -1.6445    2.8996 H   0  0  0  0  0  0  0  0  0  0  0  0
    0.1380    0.8565   -6.8000 H   0  0  0  0  0  0  0  0  0  0  0  0
    2.3504   -2.7984   -7.6081 H   0  0  0  0  0  0  0  0  0  0  0  0
    3.4533   -1.6908   -9.5426 H   0  0  0  0  0  0  0  0  0  0  0  0
  1 22  1  0  0  0  0
  2 16  2  0  0  0  0
  3 19  2  0  0  0  0
  4 26  1  0  0  0  0
  4 29  1  0  0  0  0
  5 29  2  0  0  0  0
  6 12  1  0  0  0  0
  6 13  1  0  0  0  0
  6 16  1  0  0  0  0
  7 19  1  0  0  0  0
  7 23  1  0  0  0  0
  7 30  1  0  0  0  0
  8 27  1  0  0  0  0
  8 29  1  0  0  0  0
  8 31  1  0  0  0  0
  9 10  1  0  0  0  0
  9 11  1  0  0  0  0
  9 14  1  0  0  0  0
  9 32  1  0  0  0  0
 10 12  1  0  0  0  0
 10 33  1  0  0  0  0
 10 34  1  0  0  0  0
 11 13  1  0  0  0  0
 11 35  1  0  0  0  0
 11 36  1  0  0  0  0
 12 37  1  0  0  0  0
 12 38  1  0  0  0  0
 13 39  1  0  0  0  0
 13 40  1  0  0  0  0
 14 15  1  0  0  0  0
 14 41  1  0  0  0  0
 14 42  1  0  0  0  0
 15 17  2  0  0  0  0
 15 18  1  0  0  0  0
 16 19  1  0  0  0  0
 17 20  1  0  0  0  0
 17 43  1  0  0  0  0
 18 21  2  0  0  0  0
 18 44  1  0  0  0  0
 20 22  2  0  0  0  0
 20 45  1  0  0  0  0
 21 22  1  0  0  0  0
 21 46  1  0  0  0  0
 23 24  1  0  0  0  0
 23 25  2  0  0  0  0
 24 26  2  0  0  0  0
 24 47  1  0  0  0  0
 25 28  1  0  0  0  0
 25 48  1  0  0  0  0
 26 27  1  0  0  0  0
 27 28  2  0  0  0  0
 28 49  1  0  0  0  0
M  END
>  <Mol_ID>
4757

>  <Formula>
C21H20FN3O4

>  <MolWeight>
397.3996032

>  <Cat>
S6644

>  <Name>
Radiprodil (RGH-896)

>  <Synonyms>
N/A

>  <Target>
NMDAR

>  <Form>
Free Base

>  <CAS>
496054-87-6

>  <URL>
http://www.selleck.cn/products/radiprodil.html

$$$$
