Ramelteon.cdx
 OpenBabel08302522033D

 40 42  0  0  0  0  0  0  0  0999 V2000
   -0.7078   -1.9789    0.0240 C   0  0  0  0  0  0  0  0  0  0  0  0
   -1.3177   -0.7457    0.0281 C   0  0  0  0  0  0  0  0  0  0  0  0
   -0.7469    0.5287    0.0125 C   0  0  0  0  0  0  0  0  0  0  0  0
    0.6592    0.5530    0.0005 C   0  0  0  0  0  0  0  0  0  0  0  0
    1.2632   -0.7233    0.0079 C   0  0  0  0  0  0  0  0  0  0  0  0
    0.6707   -1.9721    0.0138 C   0  0  0  0  0  0  0  0  0  0  0  0
    1.6670    1.6646   -0.0185 C   0  0  1  0  0  0  0  0  0  0  0  0
    3.0311    0.9092   -0.0097 C   0  0  0  0  0  0  0  0  0  0  0  0
    2.7587   -0.6063    0.0028 C   0  0  0  0  0  0  0  0  0  0  0  0
   -2.7085   -0.6849    0.0416 O   0  0  0  0  0  0  0  0  0  0  0  0
   -3.0535    0.7217    0.0636 C   0  0  0  0  0  0  0  0  0  0  0  0
   -1.7784    1.5710   -0.0006 C   0  0  0  0  0  0  0  0  0  0  0  0
    1.5168    2.5957   -1.2291 C   0  0  0  0  0  0  0  0  0  0  0  0
    1.7162    1.8786   -2.5689 C   0  0  0  0  0  0  0  0  0  0  0  0
    1.5803    2.7872   -3.6876 N   0  0  0  0  0  0  0  0  0  0  0  0
    2.6621    3.4746   -4.1829 C   0  0  0  0  0  0  0  0  0  0  0  0
    2.3141    4.4014   -5.3268 C   0  0  0  0  0  0  0  0  0  0  0  0
    3.5702    5.0939   -5.8237 C   0  0  0  0  0  0  0  0  0  0  0  0
    3.8028    3.3460   -3.7344 O   0  0  0  0  0  0  0  0  0  0  0  0
   -1.2858   -2.8898    0.0281 H   0  0  0  0  0  0  0  0  0  0  0  0
    1.2485   -2.8834    0.0121 H   0  0  0  0  0  0  0  0  0  0  0  0
    1.5676    2.2248    0.9210 H   0  0  0  0  0  0  0  0  0  0  0  0
    3.6165    1.1999    0.8700 H   0  0  0  0  0  0  0  0  0  0  0  0
    3.6657    1.1715   -0.8621 H   0  0  0  0  0  0  0  0  0  0  0  0
    3.1722   -1.0875   -0.8898 H   0  0  0  0  0  0  0  0  0  0  0  0
    3.1808   -1.0690    0.9001 H   0  0  0  0  0  0  0  0  0  0  0  0
   -3.7023    0.9301   -0.7942 H   0  0  0  0  0  0  0  0  0  0  0  0
   -3.6257    0.9275    0.9751 H   0  0  0  0  0  0  0  0  0  0  0  0
   -1.7511    2.1420   -0.9335 H   0  0  0  0  0  0  0  0  0  0  0  0
   -1.6944    2.2465    0.8556 H   0  0  0  0  0  0  0  0  0  0  0  0
    0.5328    3.0681   -1.2242 H   0  0  0  0  0  0  0  0  0  0  0  0
    2.2522    3.4142   -1.1478 H   0  0  0  0  0  0  0  0  0  0  0  0
    2.6915    1.4028   -2.6232 H   0  0  0  0  0  0  0  0  0  0  0  0
    0.9560    1.1052   -2.7120 H   0  0  0  0  0  0  0  0  0  0  0  0
    0.7387    2.7438   -4.2394 H   0  0  0  0  0  0  0  0  0  0  0  0
    1.8510    3.8159   -6.1289 H   0  0  0  0  0  0  0  0  0  0  0  0
    1.5880    5.1496   -4.9857 H   0  0  0  0  0  0  0  0  0  0  0  0
    4.3250    4.3587   -6.1252 H   0  0  0  0  0  0  0  0  0  0  0  0
    3.3503    5.7353   -6.6774 H   0  0  0  0  0  0  0  0  0  0  0  0
    4.0106    5.7096   -5.0312 H   0  0  0  0  0  0  0  0  0  0  0  0
  1  2  2  0  0  0  0
  1 20  1  0  0  0  0
  2  3  1  0  0  0  0
  2 10  1  0  0  0  0
  3  4  2  0  0  0  0
  4  5  1  0  0  0  0
  4  7  1  0  0  0  0
  5  6  2  0  0  0  0
  6  1  1  0  0  0  0
  6 21  1  0  0  0  0
  7  8  1  0  0  0  0
  7 22  1  1  0  0  0
  7 13  1  0  0  0  0
  8  9  1  0  0  0  0
  8 23  1  0  0  0  0
  8 24  1  0  0  0  0
  9  5  1  0  0  0  0
  9 25  1  0  0  0  0
  9 26  1  0  0  0  0
 10 11  1  0  0  0  0
 11 12  1  0  0  0  0
 11 27  1  0  0  0  0
 11 28  1  0  0  0  0
 12  3  1  0  0  0  0
 12 29  1  0  0  0  0
 12 30  1  0  0  0  0
 13 14  1  0  0  0  0
 13 31  1  0  0  0  0
 13 32  1  0  0  0  0
 14 15  1  0  0  0  0
 14 33  1  0  0  0  0
 14 34  1  0  0  0  0
 15 16  1  0  0  0  0
 15 35  1  0  0  0  0
 16 17  1  0  0  0  0
 16 19  2  0  0  0  0
 17 18  1  0  0  0  0
 17 36  1  0  0  0  0
 17 37  1  0  0  0  0
 18 38  1  0  0  0  0
 18 39  1  0  0  0  0
 18 40  1  0  0  0  0
M  END
>  <Mol_ID>
142

>  <Formula>
C16H21NO2

>  <MolWeight>
259.34344

>  <Cat>
S1259

>  <Name>
Ramelteon

>  <Synonyms>
TAK-375

>  <Target>
MT Receptor

>  <Form>
free base

>  <CAS>
196597-26-9

>  <URL>
http://selleckchem.com/products/Ramelteon.html

$$$$
