RANEXA (ranolazine).cdx
 OpenBabel08302521223D

 64 66  0  0  0  0  0  0  0  0999 V2000
    0.7575   -0.2477   -2.8716 C   0  0  0  0  0  0  0  0  0  0  0  0
    0.4581   -1.3206   -2.0566 C   0  0  0  0  0  0  0  0  0  0  0  0
   -0.0987   -1.0867   -0.8046 C   0  0  0  0  0  0  0  0  0  0  0  0
   -0.3613    0.2232   -0.3426 C   0  0  0  0  0  0  0  0  0  0  0  0
   -0.0059    1.3318   -1.1489 C   0  0  0  0  0  0  0  0  0  0  0  0
    0.5374    1.0757   -2.4417 C   0  0  0  0  0  0  0  0  0  0  0  0
    0.9251    2.1758   -3.3962 C   0  0  0  0  0  0  0  0  0  0  0  0
   -1.0547    0.2968    0.9915 C   0  0  0  0  0  0  0  0  0  0  0  0
   -0.1943    2.6989   -0.8042 N   0  0  0  0  0  0  0  0  0  0  0  0
   -0.3536    3.3073    0.4245 C   0  0  0  0  0  0  0  0  0  0  0  0
   -0.6632    4.8157    0.3516 C   0  0  0  0  0  0  0  0  0  0  0  0
   -0.1809    2.7921    1.5256 O   0  0  0  0  0  0  0  0  0  0  0  0
   -1.3289    5.2547   -0.9059 N   0  0  0  0  0  0  0  0  0  0  0  0
   -1.5061    6.7341   -0.8803 C   0  0  0  0  0  0  0  0  0  0  0  0
   -2.6570    7.2690    0.0197 C   0  0  0  0  0  0  0  0  0  0  0  0
   -3.9673    6.6170   -0.1708 N   0  0  0  0  0  0  0  0  0  0  0  0
   -3.7773    5.1557   -0.1401 C   0  0  0  0  0  0  0  0  0  0  0  0
   -2.6688    4.6415   -1.0867 C   0  0  0  0  0  0  0  0  0  0  0  0
   -4.7254    7.0556   -1.3727 C   0  0  0  0  0  0  0  0  0  0  0  0
   -5.1743    8.5359   -1.3414 C   0  0  3  0  0  0  0  0  0  0  0  0
   -5.8553    9.0508   -2.6326 C   0  0  0  0  0  0  0  0  0  0  0  0
   -7.0898    8.3962   -2.9922 O   0  0  0  0  0  0  0  0  0  0  0  0
   -7.7568    8.9851   -4.0587 C   0  0  0  0  0  0  0  0  0  0  0  0
   -5.9969    8.8090   -0.1977 O   0  0  0  0  0  0  0  0  0  0  0  0
   -7.6786   10.3745   -4.2965 C   0  0  0  0  0  0  0  0  0  0  0  0
   -8.3218   10.9877   -5.3761 C   0  0  0  0  0  0  0  0  0  0  0  0
   -9.0868   10.2283   -6.2417 C   0  0  0  0  0  0  0  0  0  0  0  0
   -9.2178    8.8632   -6.0046 C   0  0  0  0  0  0  0  0  0  0  0  0
   -8.5741    8.2280   -4.9200 C   0  0  0  0  0  0  0  0  0  0  0  0
   -8.8746    6.8938   -4.9062 O   0  0  0  0  0  0  0  0  0  0  0  0
   -8.3621    6.0736   -3.8769 C   0  0  0  0  0  0  0  0  0  0  0  0
    1.1798   -0.4434   -3.8577 H   0  0  0  0  0  0  0  0  0  0  0  0
    0.6351   -2.3412   -2.3911 H   0  0  0  0  0  0  0  0  0  0  0  0
   -0.3446   -1.9447   -0.1815 H   0  0  0  0  0  0  0  0  0  0  0  0
    0.0436    2.7556   -3.6873 H   0  0  0  0  0  0  0  0  0  0  0  0
    1.6724    2.8319   -2.9387 H   0  0  0  0  0  0  0  0  0  0  0  0
    1.3678    1.7752   -4.3151 H   0  0  0  0  0  0  0  0  0  0  0  0
   -0.3312    0.4804    1.7903 H   0  0  0  0  0  0  0  0  0  0  0  0
   -1.8513    1.0494    0.9859 H   0  0  0  0  0  0  0  0  0  0  0  0
   -1.5513   -0.6519    1.2322 H   0  0  0  0  0  0  0  0  0  0  0  0
   -0.1310    3.3757   -1.5581 H   0  0  0  0  0  0  0  0  0  0  0  0
   -1.2518    5.0781    1.2371 H   0  0  0  0  0  0  0  0  0  0  0  0
    0.3108    5.3160    0.4312 H   0  0  0  0  0  0  0  0  0  0  0  0
   -0.5659    7.2183   -0.5826 H   0  0  0  0  0  0  0  0  0  0  0  0
   -1.6893    7.0668   -1.9096 H   0  0  0  0  0  0  0  0  0  0  0  0
   -2.3689    7.1217    1.0699 H   0  0  0  0  0  0  0  0  0  0  0  0
   -2.7269    8.3559   -0.0875 H   0  0  0  0  0  0  0  0  0  0  0  0
   -3.5322    4.8632    0.8894 H   0  0  0  0  0  0  0  0  0  0  0  0
   -4.7188    4.6424   -0.3661 H   0  0  0  0  0  0  0  0  0  0  0  0
   -2.9730    4.8338   -2.1234 H   0  0  0  0  0  0  0  0  0  0  0  0
   -2.6178    3.5511   -1.0095 H   0  0  0  0  0  0  0  0  0  0  0  0
   -4.1440    6.8711   -2.2829 H   0  0  0  0  0  0  0  0  0  0  0  0
   -5.6358    6.4459   -1.4320 H   0  0  0  0  0  0  0  0  0  0  0  0
   -4.2863    9.1650   -1.2206 H   0  0  0  0  0  0  0  0  0  0  0  0
   -6.0554   10.0985   -2.3975 H   0  0  0  0  0  0  0  0  0  0  0  0
   -5.1577    8.9801   -3.4711 H   0  0  0  0  0  0  0  0  0  0  0  0
   -6.9131    8.9297   -0.4980 H   0  0  0  0  0  0  0  0  0  0  0  0
   -7.1338   11.0474   -3.6452 H   0  0  0  0  0  0  0  0  0  0  0  0
   -8.2240   12.0599   -5.5271 H   0  0  0  0  0  0  0  0  0  0  0  0
   -9.5893   10.6932   -7.0851 H   0  0  0  0  0  0  0  0  0  0  0  0
   -9.8372    8.2712   -6.6771 H   0  0  0  0  0  0  0  0  0  0  0  0
   -7.2794    5.9620   -3.9765 H   0  0  0  0  0  0  0  0  0  0  0  0
   -8.6545    6.4341   -2.8876 H   0  0  0  0  0  0  0  0  0  0  0  0
   -8.8094    5.0813   -4.0063 H   0  0  0  0  0  0  0  0  0  0  0  0
  1  2  2  0  0  0  0
  1 32  1  0  0  0  0
  2  3  1  0  0  0  0
  2 33  1  0  0  0  0
  3  4  2  0  0  0  0
  3 34  1  0  0  0  0
  4  5  1  0  0  0  0
  4  8  1  0  0  0  0
  5  6  2  0  0  0  0
  5  9  1  0  0  0  0
  6  1  1  0  0  0  0
  6  7  1  0  0  0  0
  7 35  1  0  0  0  0
  7 36  1  0  0  0  0
  7 37  1  0  0  0  0
  8 38  1  0  0  0  0
  8 39  1  0  0  0  0
  8 40  1  0  0  0  0
  9 10  1  0  0  0  0
  9 41  1  0  0  0  0
 10 11  1  0  0  0  0
 10 12  2  0  0  0  0
 11 13  1  0  0  0  0
 11 42  1  0  0  0  0
 11 43  1  0  0  0  0
 13 14  1  0  0  0  0
 14 15  1  0  0  0  0
 14 44  1  0  0  0  0
 14 45  1  0  0  0  0
 15 16  1  0  0  0  0
 15 46  1  0  0  0  0
 15 47  1  0  0  0  0
 16 17  1  0  0  0  0
 16 19  1  0  0  0  0
 17 18  1  0  0  0  0
 17 48  1  0  0  0  0
 17 49  1  0  0  0  0
 18 13  1  0  0  0  0
 18 50  1  0  0  0  0
 18 51  1  0  0  0  0
 19 20  1  0  0  0  0
 19 52  1  0  0  0  0
 19 53  1  0  0  0  0
 20 21  1  0  0  0  0
 20 24  1  0  0  0  0
 20 54  1  0  0  0  0
 21 22  1  0  0  0  0
 21 55  1  0  0  0  0
 21 56  1  0  0  0  0
 22 23  1  0  0  0  0
 23 25  2  0  0  0  0
 24 57  1  0  0  0  0
 25 26  1  0  0  0  0
 25 58  1  0  0  0  0
 26 27  2  0  0  0  0
 26 59  1  0  0  0  0
 27 28  1  0  0  0  0
 27 60  1  0  0  0  0
 28 29  2  0  0  0  0
 28 61  1  0  0  0  0
 29 23  1  0  0  0  0
 29 30  1  0  0  0  0
 30 31  1  0  0  0  0
 31 62  1  0  0  0  0
 31 63  1  0  0  0  0
 31 64  1  0  0  0  0
M  END
>  <Mol_ID>
445

>  <Formula>
C24H33N3O4

>  <MolWeight>
427.53652

>  <Cat>
S1799

>  <Name>
Ranolazine

>  <Synonyms>
CVT 303, RS 43285-003

>  <Target>
Calcium Channel

>  <Form>
Free Base

>  <CAS>
95635-55-5

>  <URL>
http://selleckchem.com/products/Ranolazine(Ranexa).html

$$$$
