Raphin1 acetate
 OpenBabel08302521243D

 30 29  0  0  0  0  0  0  0  0999 V2000
   -0.1849    0.0532   -1.5461 O   0  0  0  0  0  0  0  0  0  0  0  0
    0.8418   -1.9094   -1.1911 O   0  0  0  0  0  0  0  0  0  0  0  0
    1.4525    0.5841    0.8936 N   0  0  0  0  0  0  0  0  0  0  0  0
    0.7996   -0.2352    1.7637 N   0  0  0  0  0  0  0  0  0  0  0  0
   -0.6719    1.4172    2.3248 N   0  0  0  0  0  0  0  0  0  0  0  0
   -1.0202   -0.7253    3.1360 N   0  0  0  0  0  0  0  0  0  0  0  0
    3.2694    0.9298   -0.6180 C   0  0  0  0  0  0  0  0  0  0  0  0
    2.8417    2.2390   -0.8789 C   0  0  0  0  0  0  0  0  0  0  0  0
    4.3045    0.3650   -1.3626 C   0  0  0  0  0  0  0  0  0  0  0  0
    3.4412    2.9813   -1.8919 C   0  0  0  0  0  0  0  0  0  0  0  0
    4.9056    1.1174   -2.3755 C   0  0  0  0  0  0  0  0  0  0  0  0
    4.4719    2.4192   -2.6413 C   0  0  0  0  0  0  0  0  0  0  0  0
    2.5534    0.1219    0.3912 C   0  0  0  0  0  0  0  0  0  0  0  0
   -0.3308    0.1129    2.4463 C   0  0  0  0  0  0  0  0  0  0  0  0
   -1.5624   -1.8463   -1.5072 C   0  0  0  0  0  0  0  0  0  0  0  0
   -0.1794   -1.2872   -1.4232 C   0  0  0  0  0  0  0  0  0  0  0  0
    0.6996    0.3370   -1.2318 H   0  0  0  0  0  0  0  0  0  0  0  0
    1.0252   -1.2266    1.8283 H   0  0  0  0  0  0  0  0  0  0  0  0
   -1.6540    1.6348    2.3989 H   0  0  0  0  0  0  0  0  0  0  0  0
   -0.2301    1.8136    1.4988 H   0  0  0  0  0  0  0  0  0  0  0  0
   -1.7882   -0.2152    3.5784 H   0  0  0  0  0  0  0  0  0  0  0  0
    2.0337    2.6848   -0.3030 H   0  0  0  0  0  0  0  0  0  0  0  0
    4.6330   -0.6557   -1.1860 H   0  0  0  0  0  0  0  0  0  0  0  0
    3.0972    3.9916   -2.0988 H   0  0  0  0  0  0  0  0  0  0  0  0
    5.7064    0.6862   -2.9723 H   0  0  0  0  0  0  0  0  0  0  0  0
    4.9348    2.9966   -3.4378 H   0  0  0  0  0  0  0  0  0  0  0  0
    2.9565   -0.8754    0.6461 H   0  0  0  0  0  0  0  0  0  0  0  0
   -1.9629   -1.9454   -0.4946 H   0  0  0  0  0  0  0  0  0  0  0  0
   -2.1995   -1.1763   -2.0878 H   0  0  0  0  0  0  0  0  0  0  0  0
   -1.5359   -2.8148   -2.0067 H   0  0  0  0  0  0  0  0  0  0  0  0
  1 16  1  0  0  0  0
  1 17  1  0  0  0  0
  2 16  2  0  0  0  0
  3  4  1  0  0  0  0
  3 13  2  0  0  0  0
  4 18  1  0  0  0  0
  5 14  1  0  0  0  0
  5 19  1  0  0  0  0
  5 20  1  0  0  0  0
  6 14  2  0  0  0  0
  6 21  1  0  0  0  0
  7  8  2  0  0  0  0
  7  9  1  0  0  0  0
  7 13  1  0  0  0  0
  8 10  1  0  0  0  0
  8 22  1  0  0  0  0
  9 11  2  0  0  0  0
  9 23  1  0  0  0  0
 10 12  2  0  0  0  0
 10 24  1  0  0  0  0
 11 12  1  0  0  0  0
 11 25  1  0  0  0  0
 12 26  1  0  0  0  0
 13 27  1  0  0  0  0
 14  4  1  0  0  0  0
 15 16  1  0  0  0  0
 15 28  1  0  0  0  0
 15 29  1  0  0  0  0
 15 30  1  0  0  0  0
M  END
>  <Mol_ID>
5081

>  <Formula>
C10H12Cl2N4O2

>  <MolWeight>
291.13388

>  <Cat>
S0744

>  <Name>
Raphin1 acetate

>  <Synonyms>
N/A

>  <Target>
phosphatase

>  <Form>
acetate

>  <CAS>
2242616-04-0

>  <URL>
http://www.selleckchem.com/products/raphin1-acetate.html

$$$$
