Rasagiline
 OpenBabel08302520353D

 26 27  0  0  0  0  0  0  0  0999 V2000
    0.2596    0.7024    0.0299 C   0  0  0  0  0  0  0  0  0  0  0  0
    1.6712    1.2290    0.1233 C   0  0  1  0  0  0  0  0  0  0  0  0
    0.2475   -0.6986    0.0769 C   0  0  0  0  0  0  0  0  0  0  0  0
   -0.9322    1.4119   -0.0259 C   0  0  0  0  0  0  0  0  0  0  0  0
    2.4709   -0.0415   -0.2487 C   0  0  0  0  0  0  0  0  0  0  0  0
    1.9250    2.3535   -0.7744 N   0  0  0  0  0  0  0  0  0  0  0  0
    1.6342   -1.2418    0.2133 C   0  0  0  0  0  0  0  0  0  0  0  0
   -0.9403   -1.4117    0.0455 C   0  0  0  0  0  0  0  0  0  0  0  0
   -2.1346    0.7016   -0.0686 C   0  0  0  0  0  0  0  0  0  0  0  0
    3.2820    2.8731   -0.6530 C   0  0  0  0  0  0  0  0  0  0  0  0
   -2.1383   -0.7006   -0.0378 C   0  0  0  0  0  0  0  0  0  0  0  0
    3.4404    4.0516   -1.5196 C   0  0  0  0  0  0  0  0  0  0  0  0
    3.5831    5.0115   -2.2270 C   0  0  0  0  0  0  0  0  0  0  0  0
    1.8593    1.5066    1.1692 H   0  0  0  0  0  0  0  0  0  0  0  0
   -0.9409    2.4963   -0.0404 H   0  0  0  0  0  0  0  0  0  0  0  0
    2.6024   -0.1051   -1.3384 H   0  0  0  0  0  0  0  0  0  0  0  0
    3.4721   -0.0490    0.1958 H   0  0  0  0  0  0  0  0  0  0  0  0
    1.2752    3.1047   -0.5529 H   0  0  0  0  0  0  0  0  0  0  0  0
    1.8055   -2.1157   -0.4218 H   0  0  0  0  0  0  0  0  0  0  0  0
    1.8392   -1.4931    1.2591 H   0  0  0  0  0  0  0  0  0  0  0  0
   -0.9448   -2.4963    0.0817 H   0  0  0  0  0  0  0  0  0  0  0  0
   -3.0772    1.2406   -0.1245 H   0  0  0  0  0  0  0  0  0  0  0  0
    3.4948    3.1584    0.3837 H   0  0  0  0  0  0  0  0  0  0  0  0
    4.0147    2.1166   -0.9537 H   0  0  0  0  0  0  0  0  0  0  0  0
   -3.0836   -1.2364   -0.0741 H   0  0  0  0  0  0  0  0  0  0  0  0
    3.7144    5.8576   -2.8615 H   0  0  0  0  0  0  0  0  0  0  0  0
  1  2  1  0  0  0  0
  1  3  2  0  0  0  0
  1  4  1  0  0  0  0
  2  5  1  0  0  0  0
  2 14  1  1  0  0  0
  2  6  1  0  0  0  0
  3  7  1  0  0  0  0
  3  8  1  0  0  0  0
  4  9  2  0  0  0  0
  4 15  1  0  0  0  0
  5  7  1  0  0  0  0
  5 16  1  0  0  0  0
  5 17  1  0  0  0  0
  6 10  1  0  0  0  0
  6 18  1  0  0  0  0
  7 19  1  0  0  0  0
  7 20  1  0  0  0  0
  8 11  2  0  0  0  0
  8 21  1  0  0  0  0
  9 11  1  0  0  0  0
  9 22  1  0  0  0  0
 10 12  1  0  0  0  0
 10 23  1  0  0  0  0
 10 24  1  0  0  0  0
 11 25  1  0  0  0  0
 12 13  3  0  0  0  0
 13 26  1  0  0  0  0
M  END
>  <Mol_ID>
3428

>  <Formula>
C12H13N

>  <MolWeight>
171.23832

>  <Cat>
S5795

>  <Name>
Rasagiline

>  <Synonyms>
TVP-1012

>  <Target>
MAO

>  <Form>
Free Base

>  <CAS>
136236-51-6

>  <URL>
http://www.selleckchem.com/products/rasagiline.html

$$$$
