Rasagiline mesylate.cdx
 OpenBabel08302522023D

 35 35  0  0  0  0  0  0  0  0999 V2000
   -2.7846   -0.7177    0.1451 C   0  0  0  0  0  0  0  0  0  0  0  0
   -2.7579    0.6734   -0.0473 C   0  0  0  0  0  0  0  0  0  0  0  0
   -1.5485    1.3433   -0.2197 C   0  0  0  0  0  0  0  0  0  0  0  0
   -0.3874    0.5926   -0.2149 C   0  0  0  0  0  0  0  0  0  0  0  0
   -0.4016   -0.7908    0.0242 C   0  0  0  0  0  0  0  0  0  0  0  0
   -1.6014   -1.4577    0.1965 C   0  0  0  0  0  0  0  0  0  0  0  0
    0.9945    1.0637   -0.5238 C   0  0  0  0  0  0  0  0  0  0  0  0
    1.6203   -0.2714   -0.9520 C   0  0  0  0  0  0  0  0  0  0  0  0
    0.9760   -1.3886   -0.0892 C   0  0  1  0  0  0  0  0  0  0  0  0
    1.7107   -1.5665    1.1683 N   0  0  0  0  0  0  0  0  0  0  0  0
    1.1043   -2.4998    2.1183 C   0  0  0  0  0  0  0  0  0  0  0  0
    1.1168   -3.8988    1.6577 C   0  0  0  0  0  0  0  0  0  0  0  0
    1.1108   -5.0598    1.3450 C   0  0  0  0  0  0  0  0  0  0  0  0
    3.7781    1.1909    1.1265 O   0  0  0  0  0  0  0  0  0  0  0  0
    4.9995    0.5898    0.6611 S   0  0  0  0  0  0  0  0  0  0  0  0
    6.2916    0.9648    1.1874 O   0  0  0  0  0  0  0  0  0  0  0  0
    4.8467   -1.1858    0.7562 C   0  0  0  0  0  0  0  0  0  0  0  0
    5.0592    0.7571   -0.9502 O   0  0  0  0  0  0  0  0  0  0  0  0
   -3.7400   -1.2275    0.2335 H   0  0  0  0  0  0  0  0  0  0  0  0
   -3.6903    1.2299   -0.0908 H   0  0  0  0  0  0  0  0  0  0  0  0
   -1.5232    2.4136   -0.3993 H   0  0  0  0  0  0  0  0  0  0  0  0
   -1.6252   -2.5354    0.3205 H   0  0  0  0  0  0  0  0  0  0  0  0
    1.4503    1.4943    0.3701 H   0  0  0  0  0  0  0  0  0  0  0  0
    1.0191    1.7883   -1.3429 H   0  0  0  0  0  0  0  0  0  0  0  0
    1.3648   -0.4574   -2.0058 H   0  0  0  0  0  0  0  0  0  0  0  0
    2.7054   -0.2481   -0.9197 H   0  0  0  0  0  0  0  0  0  0  0  0
    0.9665   -2.3166   -0.6702 H   0  0  0  0  0  0  0  0  0  0  0  0
    1.8147   -0.6595    1.6270 H   0  0  0  0  0  0  0  0  0  0  0  0
    1.6974   -2.4563    3.0436 H   0  0  0  0  0  0  0  0  0  0  0  0
    0.0960   -2.1871    2.4063 H   0  0  0  0  0  0  0  0  0  0  0  0
    1.0994   -6.1007    1.1035 H   0  0  0  0  0  0  0  0  0  0  0  0
    4.0900   -1.5336    0.0553 H   0  0  0  0  0  0  0  0  0  0  0  0
    5.8063   -1.6358    0.5084 H   0  0  0  0  0  0  0  0  0  0  0  0
    4.5538   -1.4375    1.7768 H   0  0  0  0  0  0  0  0  0  0  0  0
    5.0012   -0.0853   -1.4413 H   0  0  0  0  0  0  0  0  0  0  0  0
  1  2  2  0  0  0  0
  1 19  1  0  0  0  0
  2  3  1  0  0  0  0
  2 20  1  0  0  0  0
  3  4  2  0  0  0  0
  3 21  1  0  0  0  0
  4  5  1  0  0  0  0
  4  7  1  0  0  0  0
  5  6  2  0  0  0  0
  6  1  1  0  0  0  0
  6 22  1  0  0  0  0
  7  8  1  0  0  0  0
  7 23  1  0  0  0  0
  7 24  1  0  0  0  0
  8  9  1  0  0  0  0
  8 25  1  0  0  0  0
  8 26  1  0  0  0  0
  9  5  1  0  0  0  0
  9 27  1  6  0  0  0
  9 10  1  0  0  0  0
 10 11  1  0  0  0  0
 10 28  1  0  0  0  0
 11 12  1  0  0  0  0
 11 29  1  0  0  0  0
 11 30  1  0  0  0  0
 12 13  3  0  0  0  0
 13 31  1  0  0  0  0
 14 15  2  0  0  0  0
 15 16  2  0  0  0  0
 15 17  1  0  0  0  0
 15 18  1  0  0  0  0
 17 32  1  0  0  0  0
 17 33  1  0  0  0  0
 17 34  1  0  0  0  0
 18 35  1  0  0  0  0
M  END
>  <Mol_ID>
1147

>  <Formula>
C13H17NO3S

>  <MolWeight>
267.34398

>  <Cat>
S2102

>  <Name>
Rasagiline Mesylate

>  <Synonyms>
TVP-1012,(R)-AGN1135 mesylate,TVP1012 mesylate

>  <Target>
MAO

>  <Form>
Mesylate

>  <CAS>
161735-79-1

>  <URL>
http://selleckchem.com/products/rasagiline-mesylate.html

$$$$
