RBN013209
 OpenBabel08302521373D

 52 55  0  0  0  0  0  0  0  0999 V2000
    1.1394   -0.0291   -0.8070 C   0  0  0  0  0  0  0  0  0  0  0  0
    0.5299    0.9470   -0.0214 N   0  0  0  0  0  0  0  0  0  0  0  0
    2.1709    0.1539   -1.4480 O   0  0  0  0  0  0  0  0  0  0  0  0
    2.6575    6.0987    0.8667 O   0  0  0  0  0  0  0  0  0  0  0  0
    2.0709    7.3535    0.5081 C   0  0  0  0  0  0  0  0  0  0  0  0
    3.1531    8.4119    0.2847 C   0  0  0  0  0  0  0  0  0  0  0  0
    2.5350    9.6269   -0.1494 O   0  0  0  0  0  0  0  0  0  0  0  0
    3.4935   10.6247   -0.4785 C   0  0  0  0  0  0  0  0  0  0  0  0
    1.0954   -2.4580   -1.4534 C   0  0  0  0  0  0  0  0  0  0  0  0
    0.5007   -1.3739   -0.8278 C   0  0  0  0  0  0  0  0  0  0  0  0
    0.5558   -3.7190   -1.2842 C   0  0  0  0  0  0  0  0  0  0  0  0
    2.1947   -2.5942   -2.2686 N   0  0  0  0  0  0  0  0  0  0  0  0
   -0.6882   -1.5560   -0.2036 N   0  0  0  0  0  0  0  0  0  0  0  0
   -0.5834   -3.9364   -0.6076 N   0  0  0  0  0  0  0  0  0  0  0  0
    1.3927   -4.6447   -1.9440 C   0  0  0  0  0  0  0  0  0  0  0  0
    2.3791   -3.9193   -2.5785 C   0  0  0  0  0  0  0  0  0  0  0  0
   -1.1921   -2.8154   -0.1756 C   0  0  0  0  0  0  0  0  0  0  0  0
   -2.5419   -2.9748    0.2284 N   0  0  0  0  0  0  0  0  0  0  0  0
   -3.4575   -1.9841    0.5059 C   0  0  0  0  0  0  0  0  0  0  0  0
   -3.2198   -4.1670    0.3293 C   0  0  0  0  0  0  0  0  0  0  0  0
   -4.6506   -2.6354    0.7057 C   0  0  0  0  0  0  0  0  0  0  0  0
   -4.4921   -3.9914    0.6146 N   0  0  0  0  0  0  0  0  0  0  0  0
    1.1331    2.2617    0.1466 C   0  0  2  0  0  0  0  0  0  0  0  0
    1.7378    2.4809    1.5401 C   0  0  0  0  0  0  0  0  0  0  0  0
    0.1596    3.4065   -0.1365 C   0  0  0  0  0  0  0  0  0  0  0  0
    2.5013    3.8141    1.5924 C   0  0  0  0  0  0  0  0  0  0  0  0
    0.9572    4.7039   -0.2332 C   0  0  0  0  0  0  0  0  0  0  0  0
    1.7088    5.0324    1.0667 C   0  0  2  0  0  0  0  0  0  0  0  0
   -0.3106    0.6880    0.4841 H   0  0  0  0  0  0  0  0  0  0  0  0
    1.4993    7.2605   -0.4203 H   0  0  0  0  0  0  0  0  0  0  0  0
    1.3825    7.6829    1.2946 H   0  0  0  0  0  0  0  0  0  0  0  0
    3.7025    8.5909    1.2159 H   0  0  0  0  0  0  0  0  0  0  0  0
    3.8694    8.0626   -0.4688 H   0  0  0  0  0  0  0  0  0  0  0  0
    4.1974   10.7765    0.3453 H   0  0  0  0  0  0  0  0  0  0  0  0
    4.0326   10.3485   -1.3900 H   0  0  0  0  0  0  0  0  0  0  0  0
    2.9638   11.5640   -0.6613 H   0  0  0  0  0  0  0  0  0  0  0  0
    2.7528   -1.8166   -2.6070 H   0  0  0  0  0  0  0  0  0  0  0  0
    1.2638   -5.7193   -1.9793 H   0  0  0  0  0  0  0  0  0  0  0  0
    3.1912   -4.2336   -3.2219 H   0  0  0  0  0  0  0  0  0  0  0  0
   -3.1939   -0.9370    0.4798 H   0  0  0  0  0  0  0  0  0  0  0  0
   -2.7358   -5.1235    0.1694 H   0  0  0  0  0  0  0  0  0  0  0  0
   -5.6215   -2.1982    0.9008 H   0  0  0  0  0  0  0  0  0  0  0  0
    1.9519    2.3359   -0.5774 H   0  0  0  0  0  0  0  0  0  0  0  0
    0.9501    2.4742    2.3045 H   0  0  0  0  0  0  0  0  0  0  0  0
    2.4205    1.6599    1.7913 H   0  0  0  0  0  0  0  0  0  0  0  0
   -0.3832    3.2325   -1.0784 H   0  0  0  0  0  0  0  0  0  0  0  0
   -0.5901    3.4857    0.6572 H   0  0  0  0  0  0  0  0  0  0  0  0
    2.8299    4.0107    2.6181 H   0  0  0  0  0  0  0  0  0  0  0  0
    3.4268    3.7106    1.0085 H   0  0  0  0  0  0  0  0  0  0  0  0
    0.2770    5.5180   -0.4972 H   0  0  0  0  0  0  0  0  0  0  0  0
    1.6813    4.6353   -1.0564 H   0  0  0  0  0  0  0  0  0  0  0  0
    0.9938    5.3400    1.8413 H   0  0  0  0  0  0  0  0  0  0  0  0
  1  2  1  0  0  0  0
  1  3  2  0  0  0  0
  1 10  1  0  0  0  0
  2 29  1  0  0  0  0
  4  5  1  0  0  0  0
  5  6  1  0  0  0  0
  5 30  1  0  0  0  0
  5 31  1  0  0  0  0
  6  7  1  0  0  0  0
  6 32  1  0  0  0  0
  6 33  1  0  0  0  0
  7  8  1  0  0  0  0
  8 34  1  0  0  0  0
  8 35  1  0  0  0  0
  8 36  1  0  0  0  0
  9 10  2  0  0  0  0
  9 11  1  0  0  0  0
  9 12  1  0  0  0  0
 10 13  1  0  0  0  0
 11 14  2  0  0  0  0
 11 15  1  0  0  0  0
 12 16  1  0  0  0  0
 12 37  1  0  0  0  0
 13 17  2  0  0  0  0
 14 17  1  0  0  0  0
 15 16  2  0  0  0  0
 15 38  1  0  0  0  0
 16 39  1  0  0  0  0
 17 18  1  0  0  0  0
 18 19  1  0  0  0  0
 18 20  1  0  0  0  0
 19 21  2  0  0  0  0
 19 40  1  0  0  0  0
 20 22  2  0  0  0  0
 20 41  1  0  0  0  0
 21 22  1  0  0  0  0
 21 42  1  0  0  0  0
 23  2  1  0  0  0  0
 23 24  1  0  0  0  0
 23 25  1  0  0  0  0
 23 43  1  6  0  0  0
 24 26  1  0  0  0  0
 24 44  1  0  0  0  0
 24 45  1  0  0  0  0
 25 27  1  0  0  0  0
 25 46  1  0  0  0  0
 25 47  1  0  0  0  0
 26 28  1  0  0  0  0
 26 48  1  0  0  0  0
 26 49  1  0  0  0  0
 27 28  1  0  0  0  0
 27 50  1  0  0  0  0
 27 51  1  0  0  0  0
 28 52  1  1  0  0  0
 28  4  1  0  0  0  0
M  END
>  <Mol_ID>
7506

>  <Formula>
C19H24N6O3

>  <MolWeight>
384.43226

>  <Cat>
E1305

>  <Name>
RBN013209

>  <Target>
CD markers

>  <Form>
free base

>  <CAS>
2597933-17-8

>  <URL>
https://www.selleckchem.com/products/rbn013209.html

$$$$
