RBPJ Inhibitor-1 (RIN1)
 OpenBabel08302521353D

 37 39  0  0  0  0  0  0  0  0999 V2000
    1.6605   -0.4805   -0.0613 F   0  0  0  0  0  0  0  0  0  0  0  0
    0.8130    2.2840    0.0010 O   0  0  0  0  0  0  0  0  0  0  0  0
    2.9665    4.2077    3.0024 O   0  0  0  0  0  0  0  0  0  0  0  0
    4.6258    0.5614   -3.4297 N   0  0  0  0  0  0  0  0  0  0  0  0
    5.3927   -0.3716   -4.0341 N   0  0  0  0  0  0  0  0  0  0  0  0
    0.9334    3.9007    2.1136 N   0  0  0  0  0  0  0  0  0  0  0  0
    4.2969    1.6563   -1.1326 C   0  0  0  0  0  0  0  0  0  0  0  0
    4.9926    0.8143   -2.1198 C   0  0  0  0  0  0  0  0  0  0  0  0
    2.9033    1.7463   -1.1229 C   0  0  0  0  0  0  0  0  0  0  0  0
    2.1934    2.3326   -0.0563 C   0  0  0  0  0  0  0  0  0  0  0  0
    2.9050    2.9849    0.9596 C   0  0  0  0  0  0  0  0  0  0  0  0
    4.9958    2.2662   -0.0870 C   0  0  0  0  0  0  0  0  0  0  0  0
    4.3088    2.9448    0.9318 C   0  0  0  0  0  0  0  0  0  0  0  0
    6.1066    0.0091   -1.9180 C   0  0  0  0  0  0  0  0  0  0  0  0
    3.5555    1.1274   -4.2172 C   0  0  0  0  0  0  0  0  0  0  0  0
    6.2900   -0.7025   -3.1106 C   0  0  0  0  0  0  0  0  0  0  0  0
    0.1237    1.2610   -0.6161 C   0  0  0  0  0  0  0  0  0  0  0  0
    2.2851    3.7286    2.1002 C   0  0  0  0  0  0  0  0  0  0  0  0
    0.5383   -0.0754   -0.6730 C   0  0  0  0  0  0  0  0  0  0  0  0
   -1.0968    1.6135   -1.1969 C   0  0  0  0  0  0  0  0  0  0  0  0
   -0.1790   -1.0165   -1.4055 C   0  0  0  0  0  0  0  0  0  0  0  0
   -1.8462    0.6587   -1.8909 C   0  0  0  0  0  0  0  0  0  0  0  0
   -1.3744   -0.6488   -2.0181 C   0  0  0  0  0  0  0  0  0  0  0  0
    0.3237    3.4848    1.4235 H   0  0  0  0  0  0  0  0  0  0  0  0
    0.5244    4.3908    2.8989 H   0  0  0  0  0  0  0  0  0  0  0  0
    2.3438    1.2701   -1.9171 H   0  0  0  0  0  0  0  0  0  0  0  0
    6.0810    2.2154   -0.0384 H   0  0  0  0  0  0  0  0  0  0  0  0
    4.8861    3.4150    1.7272 H   0  0  0  0  0  0  0  0  0  0  0  0
    6.6746   -0.0920   -1.0046 H   0  0  0  0  0  0  0  0  0  0  0  0
    3.9300    1.3253   -5.2250 H   0  0  0  0  0  0  0  0  0  0  0  0
    2.7413    0.3974   -4.2561 H   0  0  0  0  0  0  0  0  0  0  0  0
    3.2135    2.0697   -3.7856 H   0  0  0  0  0  0  0  0  0  0  0  0
    7.0308   -1.4574   -3.3416 H   0  0  0  0  0  0  0  0  0  0  0  0
   -1.4643    2.6340   -1.1215 H   0  0  0  0  0  0  0  0  0  0  0  0
    0.2032   -2.0293   -1.4924 H   0  0  0  0  0  0  0  0  0  0  0  0
   -2.7965    0.9366   -2.3411 H   0  0  0  0  0  0  0  0  0  0  0  0
   -1.9434   -1.3836   -2.5827 H   0  0  0  0  0  0  0  0  0  0  0  0
  1 19  1  0  0  0  0
  2 10  1  0  0  0  0
  2 17  1  0  0  0  0
  3 18  2  0  0  0  0
  4  5  1  0  0  0  0
  4  8  1  0  0  0  0
  4 15  1  0  0  0  0
  5 16  2  0  0  0  0
  6 18  1  0  0  0  0
  6 24  1  0  0  0  0
  6 25  1  0  0  0  0
  7  8  1  0  0  0  0
  7  9  2  0  0  0  0
  7 12  1  0  0  0  0
  8 14  2  0  0  0  0
  9 10  1  0  0  0  0
  9 26  1  0  0  0  0
 10 11  2  0  0  0  0
 11 13  1  0  0  0  0
 11 18  1  0  0  0  0
 12 13  2  0  0  0  0
 12 27  1  0  0  0  0
 13 28  1  0  0  0  0
 14 16  1  0  0  0  0
 14 29  1  0  0  0  0
 15 30  1  0  0  0  0
 15 31  1  0  0  0  0
 15 32  1  0  0  0  0
 16 33  1  0  0  0  0
 17 19  2  0  0  0  0
 17 20  1  0  0  0  0
 19 21  1  0  0  0  0
 20 22  2  0  0  0  0
 20 34  1  0  0  0  0
 21 23  2  0  0  0  0
 21 35  1  0  0  0  0
 22 23  1  0  0  0  0
 22 36  1  0  0  0  0
 23 37  1  0  0  0  0
M  END
>  <Mol_ID>
6667

>  <Formula>
C17H14FN3O2

>  <MolWeight>
311.3103632

>  <Cat>
S3376

>  <Name>
RBPJ Inhibitor-1 (RIN1)

>  <Synonyms>
N/A

>  <Target>
Notch

>  <Form>
Free base

>  <CAS>
2682114-39-0

>  <URL>
http://www.selleckchem.com/products/rin1.html

$$$$
