Reboxetine mesylate.cdx
 OpenBabel08302521593D

 55 56  0  0  0  0  0  0  0  0999 V2000
   -6.8498   -1.5127   -6.6251 C   0  0  0  0  0  0  0  0  0  0  0  0
   -6.1575   -2.5776   -6.0455 C   0  0  0  0  0  0  0  0  0  0  0  0
   -5.7734   -2.5335   -4.6986 C   0  0  0  0  0  0  0  0  0  0  0  0
   -6.0305   -1.3638   -3.9498 C   0  0  0  0  0  0  0  0  0  0  0  0
   -6.7308   -0.3075   -4.5418 C   0  0  0  0  0  0  0  0  0  0  0  0
   -7.1440   -0.3847   -5.8710 C   0  0  0  0  0  0  0  0  0  0  0  0
   -5.6155   -1.3440   -2.6417 O   0  0  0  0  0  0  0  0  0  0  0  0
   -5.3099   -0.0799   -2.0145 C   0  0  2  0  0  0  0  0  0  0  0  0
   -4.0731    0.5905   -2.6046 C   0  0  0  0  0  0  0  0  0  0  0  0
   -5.1126   -0.2581   -0.4719 C   0  0  2  0  0  0  0  0  0  0  0  0
   -4.0055    1.9954   -2.6877 C   0  0  0  0  0  0  0  0  0  0  0  0
   -2.8578    2.6177   -3.1787 C   0  0  0  0  0  0  0  0  0  0  0  0
   -1.7688    1.8519   -3.5929 C   0  0  0  0  0  0  0  0  0  0  0  0
   -1.8259    0.4631   -3.5202 C   0  0  0  0  0  0  0  0  0  0  0  0
   -2.9736   -0.1636   -3.0285 C   0  0  0  0  0  0  0  0  0  0  0  0
   -5.1306   -3.5720   -4.0593 O   0  0  0  0  0  0  0  0  0  0  0  0
   -5.1761   -4.8453   -4.7146 C   0  0  0  0  0  0  0  0  0  0  0  0
   -4.8426   -5.9377   -3.7136 C   0  0  0  0  0  0  0  0  0  0  0  0
   -4.0054   -1.1102   -0.1045 O   0  0  0  0  0  0  0  0  0  0  0  0
   -4.2604   -2.5003   -0.3370 C   0  0  0  0  0  0  0  0  0  0  0  0
   -5.5909   -2.9772    0.2696 C   0  0  0  0  0  0  0  0  0  0  0  0
   -6.7486   -2.1262   -0.0665 N   0  0  0  0  0  0  0  0  0  0  0  0
   -6.3945   -0.7323    0.2454 C   0  0  0  0  0  0  0  0  0  0  0  0
    1.0256   -0.0033    0.0786 C   0  0  0  0  0  0  0  0  0  0  0  0
    0.4184    1.6596    0.2268 S   0  0  0  0  0  0  0  0  0  0  0  0
    0.7117    2.3805   -0.9912 O   0  0  0  0  0  0  0  0  0  0  0  0
   -1.1574    1.3277    0.1950 O   0  0  0  0  0  0  0  0  0  0  0  0
    0.7551    2.1755    1.5342 O   0  0  0  0  0  0  0  0  0  0  0  0
   -7.1632   -1.5689   -7.6645 H   0  0  0  0  0  0  0  0  0  0  0  0
   -5.9329   -3.4311   -6.6777 H   0  0  0  0  0  0  0  0  0  0  0  0
   -6.9906    0.5892   -3.9934 H   0  0  0  0  0  0  0  0  0  0  0  0
   -7.6954    0.4396   -6.3144 H   0  0  0  0  0  0  0  0  0  0  0  0
   -6.1748    0.5865   -2.1220 H   0  0  0  0  0  0  0  0  0  0  0  0
   -4.8647    0.7286   -0.0568 H   0  0  0  0  0  0  0  0  0  0  0  0
   -4.8446    2.6106   -2.3702 H   0  0  0  0  0  0  0  0  0  0  0  0
   -2.8113    3.7020   -3.2433 H   0  0  0  0  0  0  0  0  0  0  0  0
   -0.8761    2.3392   -3.9760 H   0  0  0  0  0  0  0  0  0  0  0  0
   -0.9869   -0.1383   -3.8596 H   0  0  0  0  0  0  0  0  0  0  0  0
   -3.0049   -1.2490   -2.9801 H   0  0  0  0  0  0  0  0  0  0  0  0
   -6.1783   -5.0505   -5.1094 H   0  0  0  0  0  0  0  0  0  0  0  0
   -4.4436   -4.8673   -5.5307 H   0  0  0  0  0  0  0  0  0  0  0  0
   -5.5223   -5.8940   -2.8563 H   0  0  0  0  0  0  0  0  0  0  0  0
   -4.9282   -6.9254   -4.1787 H   0  0  0  0  0  0  0  0  0  0  0  0
   -3.8256   -5.8200   -3.3281 H   0  0  0  0  0  0  0  0  0  0  0  0
   -3.4355   -3.0556    0.1208 H   0  0  0  0  0  0  0  0  0  0  0  0
   -4.2060   -2.7132   -1.4070 H   0  0  0  0  0  0  0  0  0  0  0  0
   -5.4961   -3.0111    1.3607 H   0  0  0  0  0  0  0  0  0  0  0  0
   -5.7954   -3.9990   -0.0669 H   0  0  0  0  0  0  0  0  0  0  0  0
   -6.8895   -2.1947   -1.0799 H   0  0  0  0  0  0  0  0  0  0  0  0
   -6.2503   -0.6477    1.3308 H   0  0  0  0  0  0  0  0  0  0  0  0
   -7.2366   -0.0787   -0.0087 H   0  0  0  0  0  0  0  0  0  0  0  0
    0.6671   -0.4238   -0.8624 H   0  0  0  0  0  0  0  0  0  0  0  0
    0.6712   -0.5876    0.9289 H   0  0  0  0  0  0  0  0  0  0  0  0
    2.1173    0.0335    0.0791 H   0  0  0  0  0  0  0  0  0  0  0  0
   -1.5137    1.5088   -0.7025 H   0  0  0  0  0  0  0  0  0  0  0  0
  1  2  2  0  0  0  0
  1 29  1  0  0  0  0
  2  3  1  0  0  0  0
  2 30  1  0  0  0  0
  3  4  2  0  0  0  0
  3 16  1  0  0  0  0
  4  5  1  0  0  0  0
  4  7  1  0  0  0  0
  5  6  2  0  0  0  0
  5 31  1  0  0  0  0
  6  1  1  0  0  0  0
  6 32  1  0  0  0  0
  8  7  1  0  0  0  0
  8  9  1  0  0  0  0
  8 33  1  6  0  0  0
  9 11  2  0  0  0  0
 10 19  1  0  0  0  0
 10 23  1  0  0  0  0
 10 34  1  1  0  0  0
 10  8  1  0  0  0  0
 11 12  1  0  0  0  0
 11 35  1  0  0  0  0
 12 13  2  0  0  0  0
 12 36  1  0  0  0  0
 13 14  1  0  0  0  0
 13 37  1  0  0  0  0
 14 15  2  0  0  0  0
 14 38  1  0  0  0  0
 15  9  1  0  0  0  0
 15 39  1  0  0  0  0
 16 17  1  0  0  0  0
 17 18  1  0  0  0  0
 17 40  1  0  0  0  0
 17 41  1  0  0  0  0
 18 42  1  0  0  0  0
 18 43  1  0  0  0  0
 18 44  1  0  0  0  0
 19 20  1  0  0  0  0
 20 21  1  0  0  0  0
 20 45  1  0  0  0  0
 20 46  1  0  0  0  0
 21 22  1  0  0  0  0
 21 47  1  0  0  0  0
 21 48  1  0  0  0  0
 22 23  1  0  0  0  0
 22 49  1  0  0  0  0
 23 50  1  0  0  0  0
 23 51  1  0  0  0  0
 24 25  1  0  0  0  0
 24 52  1  0  0  0  0
 24 53  1  0  0  0  0
 24 54  1  0  0  0  0
 25 26  2  0  0  0  0
 25 27  1  0  0  0  0
 25 28  2  0  0  0  0
 27 55  1  0  0  0  0
M  END
>  <Mol_ID>
1002

>  <Formula>
C20H27NO6S

>  <MolWeight>
409.49648

>  <Cat>
S3199

>  <Name>
Reboxetine mesylate

>  <Synonyms>
PNU 155950E, FCE20124 mesylate

>  <Target>
Others

>  <Form>
Mesylate

>  <CAS>
98769-84-7

>  <URL>
http://selleckchem.com/products/reboxetine-mesylate.html

$$$$
