Reparixin(Repertaxin).cdx
 OpenBabel08302520433D

 40 40  0  0  0  0  0  0  0  0999 V2000
    1.4948   -0.3762   -0.1408 C   0  0  0  0  0  0  0  0  0  0  0  0
    0.6132   -1.4655   -0.1068 C   0  0  0  0  0  0  0  0  0  0  0  0
   -0.7472   -1.2700    0.1759 C   0  0  0  0  0  0  0  0  0  0  0  0
   -1.1928    0.0217    0.4695 C   0  0  0  0  0  0  0  0  0  0  0  0
   -0.3169    1.1025    0.4411 C   0  0  0  0  0  0  0  0  0  0  0  0
    1.0356    0.9224    0.1069 C   0  0  0  0  0  0  0  0  0  0  0  0
   -1.7389   -2.4047    0.1324 C   0  0  0  0  0  0  0  0  0  0  0  0
   -1.5878   -3.4689    1.2337 C   0  0  0  0  0  0  0  0  0  0  0  0
   -1.6019   -2.8647    2.6397 C   0  0  0  0  0  0  0  0  0  0  0  0
   -2.7218   -4.4914    1.1028 C   0  0  0  0  0  0  0  0  0  0  0  0
    1.8755    2.1766   -0.1105 C   0  0  1  0  0  0  0  0  0  0  0  0
    3.3831    2.0056    0.0792 C   0  0  0  0  0  0  0  0  0  0  0  0
    1.5957    2.8194   -1.4801 C   0  0  0  0  0  0  0  0  0  0  0  0
    1.7004    4.0243   -1.6559 O   0  0  0  0  0  0  0  0  0  0  0  0
    1.2247    1.9433   -2.5219 N   0  0  0  0  0  0  0  0  0  0  0  0
    1.2234    2.2956   -4.1346 S   0  0  0  0  0  0  0  0  0  0  0  0
    2.4090    3.0534   -4.4509 O   0  0  0  0  0  0  0  0  0  0  0  0
    0.9574    1.0322   -4.7942 O   0  0  0  0  0  0  0  0  0  0  0  0
   -0.2204    3.3233   -4.3525 C   0  0  0  0  0  0  0  0  0  0  0  0
    2.5378   -0.5642   -0.4085 H   0  0  0  0  0  0  0  0  0  0  0  0
    0.9857   -2.4605   -0.3336 H   0  0  0  0  0  0  0  0  0  0  0  0
   -2.2423    0.2024    0.7014 H   0  0  0  0  0  0  0  0  0  0  0  0
   -0.7073    2.0967    0.6462 H   0  0  0  0  0  0  0  0  0  0  0  0
   -2.7557   -1.9904    0.1714 H   0  0  0  0  0  0  0  0  0  0  0  0
   -1.6612   -2.8821   -0.8539 H   0  0  0  0  0  0  0  0  0  0  0  0
   -0.6358   -3.9972    1.0980 H   0  0  0  0  0  0  0  0  0  0  0  0
   -2.4558   -2.1928    2.7772 H   0  0  0  0  0  0  0  0  0  0  0  0
   -1.6630   -3.6490    3.4018 H   0  0  0  0  0  0  0  0  0  0  0  0
   -0.6857   -2.2967    2.8312 H   0  0  0  0  0  0  0  0  0  0  0  0
   -2.7206   -4.9531    0.1106 H   0  0  0  0  0  0  0  0  0  0  0  0
   -2.6143   -5.2909    1.8445 H   0  0  0  0  0  0  0  0  0  0  0  0
   -3.6991   -4.0207    1.2564 H   0  0  0  0  0  0  0  0  0  0  0  0
    1.5501    2.9001    0.6481 H   0  0  0  0  0  0  0  0  0  0  0  0
    3.8782    1.6678   -0.8374 H   0  0  0  0  0  0  0  0  0  0  0  0
    3.8325    2.9714    0.3441 H   0  0  0  0  0  0  0  0  0  0  0  0
    3.6249    1.3055    0.8867 H   0  0  0  0  0  0  0  0  0  0  0  0
    1.0852    0.9526   -2.3417 H   0  0  0  0  0  0  0  0  0  0  0  0
   -1.1148    2.6971   -4.3173 H   0  0  0  0  0  0  0  0  0  0  0  0
   -0.2496    4.0929   -3.5807 H   0  0  0  0  0  0  0  0  0  0  0  0
   -0.1426    3.7967   -5.3355 H   0  0  0  0  0  0  0  0  0  0  0  0
  1  2  2  0  0  0  0
  1 20  1  0  0  0  0
  2  3  1  0  0  0  0
  2 21  1  0  0  0  0
  3  4  2  0  0  0  0
  3  7  1  0  0  0  0
  4  5  1  0  0  0  0
  4 22  1  0  0  0  0
  5  6  2  0  0  0  0
  5 23  1  0  0  0  0
  6  1  1  0  0  0  0
  6 11  1  0  0  0  0
  7  8  1  0  0  0  0
  7 24  1  0  0  0  0
  7 25  1  0  0  0  0
  8  9  1  0  0  0  0
  8 10  1  0  0  0  0
  8 26  1  0  0  0  0
  9 27  1  0  0  0  0
  9 28  1  0  0  0  0
  9 29  1  0  0  0  0
 10 30  1  0  0  0  0
 10 31  1  0  0  0  0
 10 32  1  0  0  0  0
 11 12  1  0  0  0  0
 11 13  1  0  0  0  0
 11 33  1  1  0  0  0
 12 34  1  0  0  0  0
 12 35  1  0  0  0  0
 12 36  1  0  0  0  0
 13 14  2  0  0  0  0
 13 15  1  0  0  0  0
 15 16  1  0  0  0  0
 15 37  1  0  0  0  0
 16 17  2  0  0  0  0
 16 18  2  0  0  0  0
 16 19  1  0  0  0  0
 19 38  1  0  0  0  0
 19 39  1  0  0  0  0
 19 40  1  0  0  0  0
M  END
>  <Mol_ID>
4169

>  <Formula>
C14H21NO3S

>  <MolWeight>
283.38644

>  <Cat>
S8640

>  <Name>
Reparixin (Repertaxin)

>  <Synonyms>
DF 1681Y

>  <Target>
CXCR

>  <Form>
free base

>  <CAS>
266359-83-5

>  <URL>
http://selleckchem.com/products/reparixin-repertaxin.html

$$$$
