Resiquimod.cdx
 OpenBabel08302520413D

 45 47  0  0  0  0  0  0  0  0999 V2000
   -2.4212   -1.1342    0.0691 C   0  0  0  0  0  0  0  0  0  0  0  0
   -3.3024   -0.0654    0.2514 C   0  0  0  0  0  0  0  0  0  0  0  0
   -2.8039    1.1859    0.5862 C   0  0  0  0  0  0  0  0  0  0  0  0
   -1.4268    1.3731    0.6795 C   0  0  0  0  0  0  0  0  0  0  0  0
   -0.5360    0.3257    0.3571 C   0  0  0  0  0  0  0  0  0  0  0  0
   -1.0437   -0.9722    0.1299 C   0  0  0  0  0  0  0  0  0  0  0  0
    0.8708    0.4575    0.1928 C   0  0  0  0  0  0  0  0  0  0  0  0
    1.6611   -0.6782    0.0143 C   0  0  0  0  0  0  0  0  0  0  0  0
    1.0614   -1.9523   -0.0871 C   0  0  0  0  0  0  0  0  0  0  0  0
   -0.2824   -2.0635   -0.0574 N   0  0  0  0  0  0  0  0  0  0  0  0
    1.8029   -3.1250   -0.2144 N   0  0  0  0  0  0  0  0  0  0  0  0
    1.7806    1.5063    0.0769 N   0  0  0  0  0  0  0  0  0  0  0  0
    3.0525    0.9538    0.0658 C   0  0  0  0  0  0  0  0  0  0  0  0
    2.9972   -0.3615   -0.0011 N   0  0  0  0  0  0  0  0  0  0  0  0
    4.3419    1.7120    0.1343 C   0  0  0  0  0  0  0  0  0  0  0  0
    4.3560    2.5436    1.2994 O   0  0  0  0  0  0  0  0  0  0  0  0
    4.4754    1.7952    2.5118 C   0  0  0  0  0  0  0  0  0  0  0  0
    4.6203    2.7733    3.6610 C   0  0  0  0  0  0  0  0  0  0  0  0
    1.4901    2.9339   -0.0299 C   0  0  0  0  0  0  0  0  0  0  0  0
    0.7535    3.4230   -1.3143 C   0  0  0  0  0  0  0  0  0  0  0  0
    0.5872    4.9471   -1.2646 C   0  0  0  0  0  0  0  0  0  0  0  0
    1.4754    3.0070   -2.5938 C   0  0  0  0  0  0  0  0  0  0  0  0
   -0.5724    2.9108   -1.3809 O   0  0  0  0  0  0  0  0  0  0  0  0
   -2.8258   -2.1187   -0.1603 H   0  0  0  0  0  0  0  0  0  0  0  0
   -4.3722   -0.2160    0.1345 H   0  0  0  0  0  0  0  0  0  0  0  0
   -3.4779    2.0242    0.7404 H   0  0  0  0  0  0  0  0  0  0  0  0
   -1.0638    2.3596    0.9412 H   0  0  0  0  0  0  0  0  0  0  0  0
    2.7485   -3.0136    0.1329 H   0  0  0  0  0  0  0  0  0  0  0  0
    1.2716   -3.9188    0.1165 H   0  0  0  0  0  0  0  0  0  0  0  0
    5.2016    1.0307    0.1512 H   0  0  0  0  0  0  0  0  0  0  0  0
    4.4492    2.3502   -0.7484 H   0  0  0  0  0  0  0  0  0  0  0  0
    3.5753    1.1917    2.6674 H   0  0  0  0  0  0  0  0  0  0  0  0
    5.3494    1.1358    2.4701 H   0  0  0  0  0  0  0  0  0  0  0  0
    3.7822    3.4778    3.6764 H   0  0  0  0  0  0  0  0  0  0  0  0
    4.6570    2.2455    4.6181 H   0  0  0  0  0  0  0  0  0  0  0  0
    5.5344    3.3658    3.5498 H   0  0  0  0  0  0  0  0  0  0  0  0
    0.9419    3.2022    0.8789 H   0  0  0  0  0  0  0  0  0  0  0  0
    2.4432    3.4695    0.0212 H   0  0  0  0  0  0  0  0  0  0  0  0
    1.5442    5.4715   -1.3190 H   0  0  0  0  0  0  0  0  0  0  0  0
   -0.0486    5.2953   -2.0894 H   0  0  0  0  0  0  0  0  0  0  0  0
    0.0712    5.2489   -0.3440 H   0  0  0  0  0  0  0  0  0  0  0  0
    1.4805    1.9173   -2.7069 H   0  0  0  0  0  0  0  0  0  0  0  0
    0.9520    3.3979   -3.4755 H   0  0  0  0  0  0  0  0  0  0  0  0
    2.5062    3.3711   -2.6143 H   0  0  0  0  0  0  0  0  0  0  0  0
   -1.0190    3.2458   -2.1753 H   0  0  0  0  0  0  0  0  0  0  0  0
  1  2  2  0  0  0  0
  1 24  1  0  0  0  0
  2  3  1  0  0  0  0
  2 25  1  0  0  0  0
  3  4  2  0  0  0  0
  3 26  1  0  0  0  0
  4  5  1  0  0  0  0
  4 27  1  0  0  0  0
  5  6  2  0  0  0  0
  5  7  1  0  0  0  0
  6  1  1  0  0  0  0
  7  8  2  0  0  0  0
  7 12  1  0  0  0  0
  8  9  1  0  0  0  0
  9 10  2  0  0  0  0
  9 11  1  0  0  0  0
 10  6  1  0  0  0  0
 11 28  1  0  0  0  0
 11 29  1  0  0  0  0
 12 13  1  0  0  0  0
 12 19  1  0  0  0  0
 13 14  2  0  0  0  0
 13 15  1  0  0  0  0
 14  8  1  0  0  0  0
 15 16  1  0  0  0  0
 15 30  1  0  0  0  0
 15 31  1  0  0  0  0
 16 17  1  0  0  0  0
 17 18  1  0  0  0  0
 17 32  1  0  0  0  0
 17 33  1  0  0  0  0
 18 34  1  0  0  0  0
 18 35  1  0  0  0  0
 18 36  1  0  0  0  0
 19 20  1  0  0  0  0
 19 37  1  0  0  0  0
 19 38  1  0  0  0  0
 20 21  1  0  0  0  0
 20 22  1  0  0  0  0
 20 23  1  0  0  0  0
 21 39  1  0  0  0  0
 21 40  1  0  0  0  0
 21 41  1  0  0  0  0
 22 42  1  0  0  0  0
 22 43  1  0  0  0  0
 22 44  1  0  0  0  0
 23 45  1  0  0  0  0
M  END
>  <Mol_ID>
3906

>  <Formula>
C17H22N4O2

>  <MolWeight>
314.38218

>  <Cat>
S8133

>  <Name>
Resiquimod (R-848)

>  <Synonyms>
S28463

>  <Target>
HCV,IFN,Interleukins,TLR,TNF-alpha

>  <Form>
free base

>  <CAS>
144875-48-9

>  <URL>
http://selleckchem.com/products/resiquimod.html

$$$$
