resveratrol.cdx
 OpenBabel08302519583D

 29 30  0  0  0  0  0  0  0  0999 V2000
    0.9349   -0.0264    0.0662 C   0  0  0  0  0  0  0  0  0  0  0  0
    0.1801   -1.0228    0.6736 C   0  0  0  0  0  0  0  0  0  0  0  0
   -1.2152   -0.9488    0.6330 C   0  0  0  0  0  0  0  0  0  0  0  0
   -1.8607    0.1235   -0.0025 C   0  0  0  0  0  0  0  0  0  0  0  0
   -1.0778    1.1091   -0.6183 C   0  0  0  0  0  0  0  0  0  0  0  0
    0.3173    1.0370   -0.5788 C   0  0  0  0  0  0  0  0  0  0  0  0
    2.2974   -0.0587    0.0770 O   0  0  0  0  0  0  0  0  0  0  0  0
   -3.3313    0.1371   -0.0424 C   0  0  0  0  0  0  0  0  0  0  0  0
   -4.0828    1.2508   -0.0656 C   0  0  0  0  0  0  0  0  0  0  0  0
   -5.5551    1.2600   -0.0889 C   0  0  0  0  0  0  0  0  0  0  0  0
   -6.3255    0.2534    0.5080 C   0  0  0  0  0  0  0  0  0  0  0  0
   -7.7169    0.3259    0.4887 C   0  0  0  0  0  0  0  0  0  0  0  0
   -8.3731    1.3981   -0.1061 C   0  0  0  0  0  0  0  0  0  0  0  0
   -7.6083    2.4068   -0.6824 C   0  0  0  0  0  0  0  0  0  0  0  0
   -6.2155    2.3483   -0.6753 C   0  0  0  0  0  0  0  0  0  0  0  0
   -8.1906    3.4915   -1.2719 O   0  0  0  0  0  0  0  0  0  0  0  0
   -8.4069   -0.6916    1.0815 O   0  0  0  0  0  0  0  0  0  0  0  0
    0.6524   -1.8610    1.1766 H   0  0  0  0  0  0  0  0  0  0  0  0
   -1.7971   -1.7342    1.1110 H   0  0  0  0  0  0  0  0  0  0  0  0
   -1.5394    1.9387   -1.1471 H   0  0  0  0  0  0  0  0  0  0  0  0
    0.9172    1.8062   -1.0563 H   0  0  0  0  0  0  0  0  0  0  0  0
    2.5842   -0.8573    0.5489 H   0  0  0  0  0  0  0  0  0  0  0  0
   -3.7986   -0.8445   -0.0419 H   0  0  0  0  0  0  0  0  0  0  0  0
   -3.6159    2.2328   -0.0669 H   0  0  0  0  0  0  0  0  0  0  0  0
   -5.8566   -0.5911    1.0050 H   0  0  0  0  0  0  0  0  0  0  0  0
   -9.4550    1.4493   -0.1149 H   0  0  0  0  0  0  0  0  0  0  0  0
   -5.6529    3.1567   -1.1359 H   0  0  0  0  0  0  0  0  0  0  0  0
   -9.1556    3.4106   -1.2013 H   0  0  0  0  0  0  0  0  0  0  0  0
   -9.3590   -0.5188    0.9985 H   0  0  0  0  0  0  0  0  0  0  0  0
  1  2  2  0  0  0  0
  1  7  1  0  0  0  0
  2  3  1  0  0  0  0
  2 18  1  0  0  0  0
  3  4  2  0  0  0  0
  3 19  1  0  0  0  0
  4  5  1  0  0  0  0
  4  8  1  0  0  0  0
  5  6  2  0  0  0  0
  5 20  1  0  0  0  0
  6  1  1  0  0  0  0
  6 21  1  0  0  0  0
  7 22  1  0  0  0  0
  8  9  2  0  0  0  0
  8 23  1  0  0  0  0
  9 10  1  0  0  0  0
  9 24  1  0  0  0  0
 10 11  2  0  0  0  0
 11 12  1  0  0  0  0
 11 25  1  0  0  0  0
 12 13  2  0  0  0  0
 12 17  1  0  0  0  0
 13 14  1  0  0  0  0
 13 26  1  0  0  0  0
 14 15  2  0  0  0  0
 14 16  1  0  0  0  0
 15 10  1  0  0  0  0
 15 27  1  0  0  0  0
 16 28  1  0  0  0  0
 17 29  1  0  0  0  0
M  END
>  <Mol_ID>
237

>  <Formula>
C14H12O3

>  <MolWeight>
228.24328

>  <Cat>
S1396

>  <Name>
Resveratrol (SRT501)

>  <Synonyms>
trans-Resveratrol,SRT501

>  <Target>
AMPK,Apoptosis related,Autophagy,COX,ERK,I¦ÊB/IKK,JNK,Lipoxygenase,Mitophagy,Sirtuin,Src,STAT

>  <Form>
free base

>  <CAS>
501-36-0

>  <URL>
http://selleckchem.com/products/Resveratrol.html

$$$$
