Rhosin hydrochloride
 OpenBabel08302521303D

 45 48  0  0  0  0  0  0  0  0999 V2000
    1.4949   -0.8854   -0.4708 O   0  0  0  0  0  0  0  0  0  0  0  0
    4.3440    3.0214   -4.5794 N   0  0  0  0  0  0  0  0  0  0  0  0
    2.5126    2.3925    0.0147 N   0  0  0  0  0  0  0  0  0  0  0  0
    2.5284   -0.0556    1.4477 N   0  0  0  0  0  0  0  0  0  0  0  0
    2.0655   -0.9656    2.3785 N   0  0  0  0  0  0  0  0  0  0  0  0
    0.6364   -6.8055    2.4124 N   0  0  0  0  0  0  0  0  0  0  0  0
    0.1417   -6.4758    5.1684 N   0  0  0  0  0  0  0  0  0  0  0  0
    3.0202    2.0660   -3.0600 C   0  0  0  0  0  0  0  0  0  0  0  0
    2.3953    1.0544   -2.1485 C   0  0  0  0  0  0  0  0  0  0  0  0
    2.4943    3.3573   -3.3831 C   0  0  0  0  0  0  0  0  0  0  0  0
    2.8503    1.1218   -0.6766 C   0  0  2  0  0  0  0  0  0  0  0  0
    3.3347    3.9246   -4.3407 C   0  0  0  0  0  0  0  0  0  0  0  0
    4.1695    1.9022   -3.8083 C   0  0  0  0  0  0  0  0  0  0  0  0
    1.3628    4.0857   -2.9635 C   0  0  0  0  0  0  0  0  0  0  0  0
    3.0942    5.1821   -4.9076 C   0  0  0  0  0  0  0  0  0  0  0  0
    2.1989   -0.0527    0.0905 C   0  0  0  0  0  0  0  0  0  0  0  0
    1.1116    5.3469   -3.5128 C   0  0  0  0  0  0  0  0  0  0  0  0
    1.9639    5.8825   -4.4742 C   0  0  0  0  0  0  0  0  0  0  0  0
    1.3635   -3.2632    2.8365 C   0  0  0  0  0  0  0  0  0  0  0  0
    0.7734   -5.6076    3.0127 C   0  0  0  0  0  0  0  0  0  0  0  0
    1.8685   -2.1797    1.9682 C   0  0  0  0  0  0  0  0  0  0  0  0
    1.1831   -4.5213    2.2567 C   0  0  0  0  0  0  0  0  0  0  0  0
    0.5222   -5.4364    4.3981 C   0  0  0  0  0  0  0  0  0  0  0  0
    1.1031   -3.0777    4.1904 C   0  0  0  0  0  0  0  0  0  0  0  0
    0.6842   -4.1718    4.9577 C   0  0  0  0  0  0  0  0  0  0  0  0
    0.2569   -7.8327    3.2011 C   0  0  0  0  0  0  0  0  0  0  0  0
    0.0166   -7.6711    4.5499 C   0  0  0  0  0  0  0  0  0  0  0  0
    5.0894    3.1593   -5.2471 H   0  0  0  0  0  0  0  0  0  0  0  0
    2.8870    3.1614   -0.5491 H   0  0  0  0  0  0  0  0  0  0  0  0
    1.4988    2.5198   -0.0218 H   0  0  0  0  0  0  0  0  0  0  0  0
    2.8049    0.8503    1.8252 H   0  0  0  0  0  0  0  0  0  0  0  0
    2.6285    0.0570   -2.5492 H   0  0  0  0  0  0  0  0  0  0  0  0
    1.3026    1.1434   -2.2085 H   0  0  0  0  0  0  0  0  0  0  0  0
    3.9386    0.9897   -0.6265 H   0  0  0  0  0  0  0  0  0  0  0  0
    4.8602    1.0715   -3.8849 H   0  0  0  0  0  0  0  0  0  0  0  0
    0.6823    3.6727   -2.2260 H   0  0  0  0  0  0  0  0  0  0  0  0
    3.7514    5.6012   -5.6623 H   0  0  0  0  0  0  0  0  0  0  0  0
    0.2370    5.9065   -3.1905 H   0  0  0  0  0  0  0  0  0  0  0  0
    1.7442    6.8592   -4.8997 H   0  0  0  0  0  0  0  0  0  0  0  0
    2.1020   -2.4993    0.9391 H   0  0  0  0  0  0  0  0  0  0  0  0
    1.3726   -4.6752    1.1967 H   0  0  0  0  0  0  0  0  0  0  0  0
    1.2334   -2.1038    4.6546 H   0  0  0  0  0  0  0  0  0  0  0  0
    0.4892   -4.0384    6.0194 H   0  0  0  0  0  0  0  0  0  0  0  0
    0.1533   -8.7948    2.7129 H   0  0  0  0  0  0  0  0  0  0  0  0
   -0.2821   -8.5050    5.1749 H   0  0  0  0  0  0  0  0  0  0  0  0
  1 16  2  0  0  0  0
  2 12  1  0  0  0  0
  2 13  1  0  0  0  0
  2 28  1  0  0  0  0
  3 29  1  0  0  0  0
  3 30  1  0  0  0  0
  4  5  1  0  0  0  0
  4 16  1  0  0  0  0
  4 31  1  0  0  0  0
  5 21  2  0  0  0  0
  6 20  2  0  0  0  0
  6 26  1  0  0  0  0
  7 23  2  0  0  0  0
  7 27  1  0  0  0  0
  8  9  1  0  0  0  0
  8 10  1  0  0  0  0
  8 13  2  0  0  0  0
  9 11  1  0  0  0  0
  9 32  1  0  0  0  0
  9 33  1  0  0  0  0
 10 12  2  0  0  0  0
 10 14  1  0  0  0  0
 11  3  1  0  0  0  0
 11 16  1  0  0  0  0
 11 34  1  1  0  0  0
 12 15  1  0  0  0  0
 13 35  1  0  0  0  0
 14 17  2  0  0  0  0
 14 36  1  0  0  0  0
 15 18  2  0  0  0  0
 15 37  1  0  0  0  0
 17 18  1  0  0  0  0
 17 38  1  0  0  0  0
 18 39  1  0  0  0  0
 19 21  1  0  0  0  0
 19 22  2  0  0  0  0
 19 24  1  0  0  0  0
 20 22  1  0  0  0  0
 20 23  1  0  0  0  0
 21 40  1  0  0  0  0
 22 41  1  0  0  0  0
 23 25  1  0  0  0  0
 24 25  2  0  0  0  0
 24 42  1  0  0  0  0
 25 43  1  0  0  0  0
 26 27  2  0  0  0  0
 26 44  1  0  0  0  0
 27 45  1  0  0  0  0
M  END
>  <Mol_ID>
5695

>  <Formula>
C20H19ClN6O

>  <MolWeight>
394.85746

>  <Cat>
S8988

>  <Name>
Rhosin hydrochloride

>  <Synonyms>
G04 hydrochloride, Rhosin HCl

>  <Target>
Apoptosis related,Rho

>  <Form>
Hydrochloride

>  <CAS>
1281870-42-5

>  <URL>
http://www.selleckchem.com/products/rhosin-hydrochloride.html

$$$$
