RISPERIDONE (risperidone).cdx
 OpenBabel08302521403D

 57 61  0  0  0  0  0  0  0  0999 V2000
    4.1984    0.7607    0.0917 C   0  0  0  0  0  0  0  0  0  0  0  0
    4.2032   -0.5377   -0.2593 C   0  0  0  0  0  0  0  0  0  0  0  0
    5.3408   -0.9708   -1.1079 C   0  0  0  0  0  0  0  0  0  0  0  0
    5.9970    0.0351   -1.7926 N   0  0  0  0  0  0  0  0  0  0  0  0
    5.9622    1.3023   -1.2752 C   0  0  0  0  0  0  0  0  0  0  0  0
    5.1468    1.6620   -0.3343 N   0  0  0  0  0  0  0  0  0  0  0  0
    6.9359   -0.3834   -2.8265 C   0  0  0  0  0  0  0  0  0  0  0  0
    7.6321    0.7482   -3.5669 C   0  0  0  0  0  0  0  0  0  0  0  0
    8.0912    1.7919   -2.5673 C   0  0  0  0  0  0  0  0  0  0  0  0
    6.8708    2.3641   -1.8702 C   0  0  0  0  0  0  0  0  0  0  0  0
    3.1187    1.3914    0.9327 C   0  0  0  0  0  0  0  0  0  0  0  0
    5.6410   -2.1610   -1.1835 O   0  0  0  0  0  0  0  0  0  0  0  0
    3.1063   -1.5637   -0.0506 C   0  0  0  0  0  0  0  0  0  0  0  0
    3.2265   -2.4678    1.1991 C   0  0  0  0  0  0  0  0  0  0  0  0
    2.2016   -3.5561    1.2614 N   0  0  0  0  0  0  0  0  0  0  0  0
    2.3473   -4.4725    0.1193 C   0  0  0  0  0  0  0  0  0  0  0  0
    1.4161   -5.6770    0.1771 C   0  0  0  0  0  0  0  0  0  0  0  0
    1.5938   -6.4587    1.4789 C   0  0  0  0  0  0  0  0  0  0  0  0
    1.3533   -5.4996    2.6486 C   0  0  0  0  0  0  0  0  0  0  0  0
    2.2931   -4.2798    2.5481 C   0  0  0  0  0  0  0  0  0  0  0  0
    0.7376   -7.6951    1.4429 C   0  0  0  0  0  0  0  0  0  0  0  0
    1.1005   -8.9677    0.9118 C   0  0  0  0  0  0  0  0  0  0  0  0
   -0.0891   -9.6762    0.9005 C   0  0  0  0  0  0  0  0  0  0  0  0
   -1.0711   -8.9080    1.4417 O   0  0  0  0  0  0  0  0  0  0  0  0
   -0.5591   -7.6648    1.7827 N   0  0  0  0  0  0  0  0  0  0  0  0
    2.2581   -9.5789    0.3926 C   0  0  0  0  0  0  0  0  0  0  0  0
    2.1498  -10.8792   -0.1202 C   0  0  0  0  0  0  0  0  0  0  0  0
    0.9222  -11.5402   -0.1259 C   0  0  0  0  0  0  0  0  0  0  0  0
   -0.2365  -10.9613    0.3881 C   0  0  0  0  0  0  0  0  0  0  0  0
    0.8570  -12.7745   -0.6439 F   0  0  0  0  0  0  0  0  0  0  0  0
    7.6847   -1.0349   -2.3597 H   0  0  0  0  0  0  0  0  0  0  0  0
    6.3852   -1.0029   -3.5463 H   0  0  0  0  0  0  0  0  0  0  0  0
    6.9483    1.2048   -4.2935 H   0  0  0  0  0  0  0  0  0  0  0  0
    8.4838    0.3552   -4.1337 H   0  0  0  0  0  0  0  0  0  0  0  0
    8.6447    2.5885   -3.0766 H   0  0  0  0  0  0  0  0  0  0  0  0
    8.7689    1.3372   -1.8347 H   0  0  0  0  0  0  0  0  0  0  0  0
    6.2719    2.9476   -2.5819 H   0  0  0  0  0  0  0  0  0  0  0  0
    7.1869    3.0516   -1.0780 H   0  0  0  0  0  0  0  0  0  0  0  0
    3.5568    1.8209    1.8395 H   0  0  0  0  0  0  0  0  0  0  0  0
    2.6310    2.1985    0.3742 H   0  0  0  0  0  0  0  0  0  0  0  0
    2.3445    0.6883    1.2461 H   0  0  0  0  0  0  0  0  0  0  0  0
    2.1241   -1.0744   -0.0489 H   0  0  0  0  0  0  0  0  0  0  0  0
    3.1018   -2.1806   -0.9569 H   0  0  0  0  0  0  0  0  0  0  0  0
    4.2335   -2.9009    1.2566 H   0  0  0  0  0  0  0  0  0  0  0  0
    3.1049   -1.8270    2.0830 H   0  0  0  0  0  0  0  0  0  0  0  0
    3.3831   -4.8239    0.0387 H   0  0  0  0  0  0  0  0  0  0  0  0
    2.0979   -3.9512   -0.8095 H   0  0  0  0  0  0  0  0  0  0  0  0
    1.6213   -6.3243   -0.6849 H   0  0  0  0  0  0  0  0  0  0  0  0
    0.3730   -5.3465    0.0745 H   0  0  0  0  0  0  0  0  0  0  0  0
    2.6391   -6.7932    1.5446 H   0  0  0  0  0  0  0  0  0  0  0  0
    0.3098   -5.1585    2.6658 H   0  0  0  0  0  0  0  0  0  0  0  0
    1.5281   -6.0161    3.6011 H   0  0  0  0  0  0  0  0  0  0  0  0
    2.0411   -3.5932    3.3659 H   0  0  0  0  0  0  0  0  0  0  0  0
    3.3227   -4.6202    2.7182 H   0  0  0  0  0  0  0  0  0  0  0  0
    3.2120   -9.0609    0.3798 H   0  0  0  0  0  0  0  0  0  0  0  0
    3.0236  -11.3797   -0.5304 H   0  0  0  0  0  0  0  0  0  0  0  0
   -1.1875  -11.4758    0.3694 H   0  0  0  0  0  0  0  0  0  0  0  0
  1  2  2  0  0  0  0
  1 11  1  0  0  0  0
  2  3  1  0  0  0  0
  2 13  1  0  0  0  0
  3  4  1  0  0  0  0
  3 12  2  0  0  0  0
  4  5  1  0  0  0  0
  4  7  1  0  0  0  0
  5  6  2  0  0  0  0
  6  1  1  0  0  0  0
  7  8  1  0  0  0  0
  7 31  1  0  0  0  0
  7 32  1  0  0  0  0
  8  9  1  0  0  0  0
  8 33  1  0  0  0  0
  8 34  1  0  0  0  0
  9 10  1  0  0  0  0
  9 35  1  0  0  0  0
  9 36  1  0  0  0  0
 10  5  1  0  0  0  0
 10 37  1  0  0  0  0
 10 38  1  0  0  0  0
 11 39  1  0  0  0  0
 11 40  1  0  0  0  0
 11 41  1  0  0  0  0
 13 14  1  0  0  0  0
 13 42  1  0  0  0  0
 13 43  1  0  0  0  0
 14 15  1  0  0  0  0
 14 44  1  0  0  0  0
 14 45  1  0  0  0  0
 15 16  1  0  0  0  0
 16 17  1  0  0  0  0
 16 46  1  0  0  0  0
 16 47  1  0  0  0  0
 17 18  1  0  0  0  0
 17 48  1  0  0  0  0
 17 49  1  0  0  0  0
 18 19  1  0  0  0  0
 18 21  1  0  0  0  0
 18 50  1  0  0  0  0
 19 20  1  0  0  0  0
 19 51  1  0  0  0  0
 19 52  1  0  0  0  0
 20 15  1  0  0  0  0
 20 53  1  0  0  0  0
 20 54  1  0  0  0  0
 21 22  1  0  0  0  0
 22 23  2  0  0  0  0
 22 26  1  0  0  0  0
 23 24  1  0  0  0  0
 24 25  1  0  0  0  0
 25 21  2  0  0  0  0
 26 27  2  0  0  0  0
 26 55  1  0  0  0  0
 27 28  1  0  0  0  0
 27 56  1  0  0  0  0
 28 29  2  0  0  0  0
 28 30  1  0  0  0  0
 29 23  1  0  0  0  0
 29 57  1  0  0  0  0
M  END
>  <Mol_ID>
8226

>  <Formula>
C23H27FN4O2

>  <MolWeight>
410.4844832

>  <Cat>
S1615

>  <Name>
Risperidone

>  <Synonyms>
R-64766

>  <Target>
5-HT Receptor

>  <Form>
free base

>  <CAS>
106266-06-2

>  <URL>
http://selleckchem.com/products/Risperidone(Risperdal).html

$$$$
