RN-1747
 OpenBabel08302521313D

 44 46  0  0  0  0  0  0  0  0999 V2000
    1.3058    0.0448    0.3806 S   0  0  0  0  0  0  0  0  0  0  0  0
    0.6970   -0.8080   -0.6192 O   0  0  0  0  0  0  0  0  0  0  0  0
    0.9240   -0.0308    1.7672 O   0  0  0  0  0  0  0  0  0  0  0  0
    3.2988    0.7600    3.2125 O   0  5  0  0  0  0  0  0  0  0  0  0
    3.3441    2.6339    2.0526 O   0  0  0  0  0  0  0  0  0  0  0  0
    1.1728    1.6268   -0.1644 N   0  0  0  0  0  0  0  0  0  0  0  0
    1.0642    4.3797   -1.1549 N   0  0  0  0  0  0  0  0  0  0  0  0
    3.4480    1.4050    2.1727 N   0  3  0  0  0  0  0  0  0  0  0  0
    1.3708    1.8949   -1.6078 C   0  0  0  0  0  0  0  0  0  0  0  0
    0.1615    2.5338    0.4215 C   0  0  0  0  0  0  0  0  0  0  0  0
    1.9089    3.3248   -1.7526 C   0  0  0  0  0  0  0  0  0  0  0  0
    0.6053    4.0038    0.1988 C   0  0  0  0  0  0  0  0  0  0  0  0
   -0.0114    4.8567   -2.0325 C   0  0  0  0  0  0  0  0  0  0  0  0
    3.0655   -0.1508    0.2778 C   0  0  0  0  0  0  0  0  0  0  0  0
    0.5454    5.4470   -3.3180 C   0  0  0  0  0  0  0  0  0  0  0  0
    3.9175    0.6716    1.0178 C   0  0  0  0  0  0  0  0  0  0  0  0
    3.6103   -0.9925   -0.6991 C   0  0  0  0  0  0  0  0  0  0  0  0
    0.1699    4.9269   -4.5634 C   0  0  0  0  0  0  0  0  0  0  0  0
    1.5364    6.4439   -3.2696 C   0  0  0  0  0  0  0  0  0  0  0  0
    5.2835    0.7518    0.7251 C   0  0  0  0  0  0  0  0  0  0  0  0
    4.9833   -0.9508   -0.9638 C   0  0  0  0  0  0  0  0  0  0  0  0
    5.8116   -0.0568   -0.2803 C   0  0  0  0  0  0  0  0  0  0  0  0
    0.8375    5.3259   -5.7232 C   0  0  0  0  0  0  0  0  0  0  0  0
    2.2026    6.8389   -4.4298 C   0  0  0  0  0  0  0  0  0  0  0  0
    1.8688    6.2620   -5.6527 C   0  0  0  0  0  0  0  0  0  0  0  0
    2.0977    1.2018   -2.0415 H   0  0  0  0  0  0  0  0  0  0  0  0
    0.4243    1.7696   -2.1464 H   0  0  0  0  0  0  0  0  0  0  0  0
   -0.8156    2.3498   -0.0390 H   0  0  0  0  0  0  0  0  0  0  0  0
    0.0767    2.3656    1.5000 H   0  0  0  0  0  0  0  0  0  0  0  0
    2.8826    3.3751   -1.2475 H   0  0  0  0  0  0  0  0  0  0  0  0
    2.1303    3.5133   -2.8091 H   0  0  0  0  0  0  0  0  0  0  0  0
    1.4547    4.1931    0.8684 H   0  0  0  0  0  0  0  0  0  0  0  0
   -0.1863    4.6801    0.5443 H   0  0  0  0  0  0  0  0  0  0  0  0
   -0.7254    4.0535   -2.2523 H   0  0  0  0  0  0  0  0  0  0  0  0
   -0.5752    5.6568   -1.5344 H   0  0  0  0  0  0  0  0  0  0  0  0
    2.9740   -1.6570   -1.2805 H   0  0  0  0  0  0  0  0  0  0  0  0
   -0.6127    4.1757   -4.6339 H   0  0  0  0  0  0  0  0  0  0  0  0
    1.8350    6.8661   -2.3117 H   0  0  0  0  0  0  0  0  0  0  0  0
    5.9334    1.4331    1.2731 H   0  0  0  0  0  0  0  0  0  0  0  0
    5.4070   -1.6026   -1.7268 H   0  0  0  0  0  0  0  0  0  0  0  0
    6.8709   -0.0033   -0.5211 H   0  0  0  0  0  0  0  0  0  0  0  0
    0.5725    4.8844   -6.6804 H   0  0  0  0  0  0  0  0  0  0  0  0
    3.0036    7.5714   -4.3720 H   0  0  0  0  0  0  0  0  0  0  0  0
    2.4161    6.5379   -6.5502 H   0  0  0  0  0  0  0  0  0  0  0  0
  1  2  2  0  0  0  0
  1  3  2  0  0  0  0
  1  6  1  0  0  0  0
  1 14  1  0  0  0  0
  4  8  1  0  0  0  0
  5  8  2  0  0  0  0
  6  9  1  0  0  0  0
  6 10  1  0  0  0  0
  7 11  1  0  0  0  0
  7 12  1  0  0  0  0
  7 13  1  0  0  0  0
  8 16  1  0  0  0  0
  9 11  1  0  0  0  0
  9 26  1  0  0  0  0
  9 27  1  0  0  0  0
 10 12  1  0  0  0  0
 10 28  1  0  0  0  0
 10 29  1  0  0  0  0
 11 30  1  0  0  0  0
 11 31  1  0  0  0  0
 12 32  1  0  0  0  0
 12 33  1  0  0  0  0
 13 15  1  0  0  0  0
 13 34  1  0  0  0  0
 13 35  1  0  0  0  0
 14 16  2  0  0  0  0
 14 17  1  0  0  0  0
 15 18  2  0  0  0  0
 15 19  1  0  0  0  0
 16 20  1  0  0  0  0
 17 21  2  0  0  0  0
 17 36  1  0  0  0  0
 18 23  1  0  0  0  0
 18 37  1  0  0  0  0
 19 24  2  0  0  0  0
 19 38  1  0  0  0  0
 20 22  2  0  0  0  0
 20 39  1  0  0  0  0
 21 22  1  0  0  0  0
 21 40  1  0  0  0  0
 22 41  1  0  0  0  0
 23 25  2  0  0  0  0
 23 42  1  0  0  0  0
 24 25  1  0  0  0  0
 24 43  1  0  0  0  0
 25 44  1  0  0  0  0
M  CHG  2   4  -1   8   1
M  END
>  <Mol_ID>
6052

>  <Formula>
C17H18ClN3O4S

>  <MolWeight>
395.86052

>  <Cat>
E0031

>  <Name>
RN-1747

>  <Synonyms>
N/A

>  <Target>
TRP Channel

>  <Form>
Free Base

>  <CAS>
1024448-59-6

>  <URL>
http://www.selleckchem.com/products/rn-1747.html

$$$$
