RN-1734
 OpenBabel08302521243D

 43 43  0  0  0  0  0  0  0  0999 V2000
    1.3803   -0.3058    0.0120 C   0  0  0  0  0  0  0  0  0  0  0  0
    0.5120   -0.3620    1.1062 C   0  0  0  0  0  0  0  0  0  0  0  0
   -0.8604   -0.1815    0.9115 C   0  0  0  0  0  0  0  0  0  0  0  0
   -1.3584    0.0748   -0.3717 C   0  0  0  0  0  0  0  0  0  0  0  0
   -0.4904    0.1533   -1.4552 C   0  0  0  0  0  0  0  0  0  0  0  0
    0.8811   -0.0248   -1.2688 C   0  0  0  0  0  0  0  0  0  0  0  0
    3.1461   -0.3829    0.2604 S   0  0  0  0  0  0  0  0  0  0  0  0
    3.7614    0.1892   -0.9225 O   0  0  0  0  0  0  0  0  0  0  0  0
    3.4035    0.1884    1.5681 O   0  0  0  0  0  0  0  0  0  0  0  0
    3.5353   -2.0626    0.2856 N   0  0  0  0  0  0  0  0  0  0  0  0
    3.1191   -2.7895   -0.9668 C   0  0  0  0  0  0  0  0  0  0  0  0
    3.4294   -4.3039   -1.0212 C   0  0  0  0  0  0  0  0  0  0  0  0
    3.0649   -5.1140    0.1473 N   0  0  0  0  0  0  0  0  0  0  0  0
    1.6486   -5.0826    0.5215 C   0  0  0  0  0  0  0  0  0  0  0  0
    0.7512   -5.7590   -0.5163 C   0  0  0  0  0  0  0  0  0  0  0  0
    1.5165   -5.8069    1.8639 C   0  0  0  0  0  0  0  0  0  0  0  0
    4.8899   -2.4446    0.8382 C   0  0  0  0  0  0  0  0  0  0  0  0
    6.0847   -1.7770    0.1558 C   0  0  0  0  0  0  0  0  0  0  0  0
    4.9368   -2.2558    2.3533 C   0  0  0  0  0  0  0  0  0  0  0  0
    0.8989   -0.5217    2.1116 H   0  0  0  0  0  0  0  0  0  0  0  0
   -1.5357   -0.2175    1.7588 H   0  0  0  0  0  0  0  0  0  0  0  0
   -2.4260    0.2288   -0.5162 H   0  0  0  0  0  0  0  0  0  0  0  0
   -0.8783    0.3814   -2.4491 H   0  0  0  0  0  0  0  0  0  0  0  0
    1.5562    0.0774   -2.1178 H   0  0  0  0  0  0  0  0  0  0  0  0
    2.0322   -2.6903   -1.0667 H   0  0  0  0  0  0  0  0  0  0  0  0
    3.5739   -2.3114   -1.8418 H   0  0  0  0  0  0  0  0  0  0  0  0
    2.9676   -4.7254   -1.9223 H   0  0  0  0  0  0  0  0  0  0  0  0
    4.5077   -4.4269   -1.1796 H   0  0  0  0  0  0  0  0  0  0  0  0
    3.3636   -6.0773    0.0027 H   0  0  0  0  0  0  0  0  0  0  0  0
    1.3163   -4.0500    0.6745 H   0  0  0  0  0  0  0  0  0  0  0  0
    1.0522   -6.7991   -0.6883 H   0  0  0  0  0  0  0  0  0  0  0  0
   -0.2906   -5.7669   -0.1771 H   0  0  0  0  0  0  0  0  0  0  0  0
    0.7763   -5.2359   -1.4772 H   0  0  0  0  0  0  0  0  0  0  0  0
    2.2185   -5.4034    2.6026 H   0  0  0  0  0  0  0  0  0  0  0  0
    0.5061   -5.6849    2.2685 H   0  0  0  0  0  0  0  0  0  0  0  0
    1.7117   -6.8809    1.7631 H   0  0  0  0  0  0  0  0  0  0  0  0
    5.0357   -3.5189    0.7090 H   0  0  0  0  0  0  0  0  0  0  0  0
    5.9112   -0.7413   -0.1375 H   0  0  0  0  0  0  0  0  0  0  0  0
    6.9589   -1.7771    0.8188 H   0  0  0  0  0  0  0  0  0  0  0  0
    6.3718   -2.3333   -0.7434 H   0  0  0  0  0  0  0  0  0  0  0  0
    4.0472   -2.6792    2.8297 H   0  0  0  0  0  0  0  0  0  0  0  0
    5.8136   -2.7689    2.7660 H   0  0  0  0  0  0  0  0  0  0  0  0
    5.0263   -1.2067    2.6425 H   0  0  0  0  0  0  0  0  0  0  0  0
  1  2  2  0  0  0  0
  1  6  1  0  0  0  0
  1  7  1  0  0  0  0
  2  3  1  0  0  0  0
  2 20  1  0  0  0  0
  3  4  2  0  0  0  0
  3 21  1  0  0  0  0
  4  5  1  0  0  0  0
  4 22  1  0  0  0  0
  5  6  2  0  0  0  0
  5 23  1  0  0  0  0
  6 24  1  0  0  0  0
  7  8  2  0  0  0  0
  7  9  2  0  0  0  0
  7 10  1  0  0  0  0
 10 11  1  0  0  0  0
 10 17  1  0  0  0  0
 11 12  1  0  0  0  0
 11 25  1  0  0  0  0
 11 26  1  0  0  0  0
 12 13  1  0  0  0  0
 12 27  1  0  0  0  0
 12 28  1  0  0  0  0
 13 14  1  0  0  0  0
 13 29  1  0  0  0  0
 14 15  1  0  0  0  0
 14 16  1  0  0  0  0
 14 30  1  0  0  0  0
 15 31  1  0  0  0  0
 15 32  1  0  0  0  0
 15 33  1  0  0  0  0
 16 34  1  0  0  0  0
 16 35  1  0  0  0  0
 16 36  1  0  0  0  0
 17 18  1  0  0  0  0
 17 19  1  0  0  0  0
 17 37  1  0  0  0  0
 18 38  1  0  0  0  0
 18 39  1  0  0  0  0
 18 40  1  0  0  0  0
 19 41  1  0  0  0  0
 19 42  1  0  0  0  0
 19 43  1  0  0  0  0
M  END
>  <Mol_ID>
4916

>  <Formula>
C14H22Cl2N2O2S

>  <MolWeight>
353.30768

>  <Cat>
S2650

>  <Name>
RN-1734

>  <Synonyms>
TRPV4 Antagonist I

>  <Target>
TRP Channel

>  <Form>
Free Base

>  <CAS>
946387-07-1

>  <URL>
http://www.selleckchem.com/products/rn-1734.html

$$$$
