RO5186582
 OpenBabel08302521333D

 51 54  0  0  0  0  0  0  0  0999 V2000
   -1.0658    0.6176   -0.8039 C   0  0  0  0  0  0  0  0  0  0  0  0
    0.3274    0.6947   -1.1323 O   0  0  0  0  0  0  0  0  0  0  0  0
   -3.4785   -1.0487   -2.3119 C   0  0  0  0  0  0  0  0  0  0  0  0
    3.2319   -1.1910    3.9538 F   0  0  0  0  0  0  0  0  0  0  0  0
    1.9209    6.0168   -1.8240 C   0  0  0  0  0  0  0  0  0  0  0  0
    2.7509    6.4623   -1.0435 O   0  0  0  0  0  0  0  0  0  0  0  0
    2.2568    8.2784   -6.7578 O   0  0  0  0  0  0  0  0  0  0  0  0
    0.1879    9.0006   -5.5109 O   0  0  0  0  0  0  0  0  0  0  0  0
   -0.9769   -1.7738    0.2974 C   0  0  0  0  0  0  0  0  0  0  0  0
   -1.4940   -0.7901   -0.6050 C   0  0  0  0  0  0  0  0  0  0  0  0
   -1.6240   -2.9379    0.1347 N   0  0  0  0  0  0  0  0  0  0  0  0
   -2.5069   -1.4436   -1.2727 C   0  0  0  0  0  0  0  0  0  0  0  0
   -2.5775   -2.7255   -0.8387 O   0  0  0  0  0  0  0  0  0  0  0  0
    0.0982   -1.6364    1.2898 C   0  0  0  0  0  0  0  0  0  0  0  0
    0.3093   -0.4212    1.9608 C   0  0  0  0  0  0  0  0  0  0  0  0
    0.9447   -2.7163    1.5772 C   0  0  0  0  0  0  0  0  0  0  0  0
    1.3742   -0.2647    2.8492 C   0  0  0  0  0  0  0  0  0  0  0  0
    2.0001   -2.5672    2.4832 C   0  0  0  0  0  0  0  0  0  0  0  0
    2.2112   -1.3403    3.1005 C   0  0  0  0  0  0  0  0  0  0  0  0
    0.7217    2.0012   -1.2999 C   0  0  0  0  0  0  0  0  0  0  0  0
    2.0563    2.3134   -1.0973 C   0  0  0  0  0  0  0  0  0  0  0  0
   -0.2143    2.9107   -1.6359 N   0  0  0  0  0  0  0  0  0  0  0  0
    2.4518    3.6445   -1.2469 C   0  0  0  0  0  0  0  0  0  0  0  0
    0.1946    4.1893   -1.7569 C   0  0  0  0  0  0  0  0  0  0  0  0
    1.5120    4.6032   -1.6329 C   0  0  0  0  0  0  0  0  0  0  0  0
    1.3771    6.7857   -2.8658 N   0  0  0  0  0  0  0  0  0  0  0  0
    0.4674    6.3167   -3.9178 C   0  0  0  0  0  0  0  0  0  0  0  0
    1.6799    8.2249   -2.8982 C   0  0  0  0  0  0  0  0  0  0  0  0
    0.9905    6.5311   -5.3149 C   0  0  0  0  0  0  0  0  0  0  0  0
    2.4056    8.6158   -4.1666 C   0  0  0  0  0  0  0  0  0  0  0  0
    1.4115    8.2249   -5.5804 S   0  0  0  0  0  0  0  0  0  0  0  0
   -1.6732    1.0641   -1.5990 H   0  0  0  0  0  0  0  0  0  0  0  0
   -1.2663    1.1881    0.1126 H   0  0  0  0  0  0  0  0  0  0  0  0
   -3.3288   -1.6320   -3.2245 H   0  0  0  0  0  0  0  0  0  0  0  0
   -4.5021   -1.2040   -1.9589 H   0  0  0  0  0  0  0  0  0  0  0  0
   -3.3784    0.0101   -2.5729 H   0  0  0  0  0  0  0  0  0  0  0  0
   -0.3491    0.4266    1.8172 H   0  0  0  0  0  0  0  0  0  0  0  0
    0.7945   -3.6795    1.0923 H   0  0  0  0  0  0  0  0  0  0  0  0
    1.5455    0.6863    3.3411 H   0  0  0  0  0  0  0  0  0  0  0  0
    2.6611   -3.3986    2.7055 H   0  0  0  0  0  0  0  0  0  0  0  0
    2.7670    1.5475   -0.8045 H   0  0  0  0  0  0  0  0  0  0  0  0
    3.4830    3.9320   -1.0514 H   0  0  0  0  0  0  0  0  0  0  0  0
   -0.6111    4.8820   -1.9765 H   0  0  0  0  0  0  0  0  0  0  0  0
   -0.4866    6.8307   -3.7577 H   0  0  0  0  0  0  0  0  0  0  0  0
    0.2872    5.2471   -3.8535 H   0  0  0  0  0  0  0  0  0  0  0  0
    0.7250    8.7546   -2.8035 H   0  0  0  0  0  0  0  0  0  0  0  0
    2.2873    8.5167   -2.0316 H   0  0  0  0  0  0  0  0  0  0  0  0
    0.2254    6.2546   -6.0465 H   0  0  0  0  0  0  0  0  0  0  0  0
    1.8841    5.9259   -5.4969 H   0  0  0  0  0  0  0  0  0  0  0  0
    3.3533    8.0781   -4.2693 H   0  0  0  0  0  0  0  0  0  0  0  0
    2.6000    9.6928   -4.1957 H   0  0  0  0  0  0  0  0  0  0  0  0
  1  2  1  0  0  0  0
  1 10  1  0  0  0  0
  1 32  1  0  0  0  0
  1 33  1  0  0  0  0
  2 20  1  0  0  0  0
  3 12  1  0  0  0  0
  3 34  1  0  0  0  0
  3 35  1  0  0  0  0
  3 36  1  0  0  0  0
  4 19  1  0  0  0  0
  5  6  2  0  0  0  0
  5 25  1  0  0  0  0
  5 26  1  0  0  0  0
  7 31  2  0  0  0  0
  8 31  2  0  0  0  0
  9 10  1  0  0  0  0
  9 11  2  0  0  0  0
  9 14  1  0  0  0  0
 10 12  2  0  0  0  0
 11 13  1  0  0  0  0
 12 13  1  0  0  0  0
 14 15  2  0  0  0  0
 14 16  1  0  0  0  0
 15 17  1  0  0  0  0
 15 37  1  0  0  0  0
 16 18  2  0  0  0  0
 16 38  1  0  0  0  0
 17 19  2  0  0  0  0
 17 39  1  0  0  0  0
 18 19  1  0  0  0  0
 18 40  1  0  0  0  0
 20 21  2  0  0  0  0
 20 22  1  0  0  0  0
 21 23  1  0  0  0  0
 21 41  1  0  0  0  0
 22 24  2  0  0  0  0
 23 25  2  0  0  0  0
 23 42  1  0  0  0  0
 24 25  1  0  0  0  0
 24 43  1  0  0  0  0
 26 27  1  0  0  0  0
 26 28  1  0  0  0  0
 27 29  1  0  0  0  0
 27 44  1  0  0  0  0
 27 45  1  0  0  0  0
 28 30  1  0  0  0  0
 28 46  1  0  0  0  0
 28 47  1  0  0  0  0
 29 31  1  0  0  0  0
 29 48  1  0  0  0  0
 29 49  1  0  0  0  0
 30 31  1  0  0  0  0
 30 50  1  0  0  0  0
 30 51  1  0  0  0  0
M  END
>  <Mol_ID>
6381

>  <Formula>
C21H20FN3O5S

>  <MolWeight>
445.4640032

>  <Cat>
E0960

>  <Name>
RO5186582

>  <Synonyms>
Basmisanil, RG1662

>  <Target>
GABA Receptor

>  <Form>
free base

>  <CAS>
1159600-41-5

>  <URL>
http://www.selleckchem.com/products/ro5186582.html

$$$$
