RO 5028442 (RG7713)
 OpenBabel08302521313D

 59 63  0  0  0  0  0  0  0  0999 V2000
    0.4159   -0.1162   -0.4824 C   0  0  0  0  0  0  0  0  0  0  0  0
    0.0933    1.0301   -0.1548 O   0  0  0  0  0  0  0  0  0  0  0  0
   -0.6407   -1.1094   -4.2343 C   0  0  0  0  0  0  0  0  0  0  0  0
   -1.8697   -1.8619   -4.4616 O   0  0  0  0  0  0  0  0  0  0  0  0
   -1.8906   -2.3784   -5.8128 C   0  0  0  0  0  0  0  0  0  0  0  0
   -0.8722   -1.5782   -6.5310 C   0  0  0  0  0  0  0  0  0  0  0  0
   -0.5960   -1.5264   -7.8874 C   0  0  0  0  0  0  0  0  0  0  0  0
    0.4538   -0.7116   -8.3202 C   0  0  0  0  0  0  0  0  0  0  0  0
    1.2055    0.0311   -7.3989 C   0  0  0  0  0  0  0  0  0  0  0  0
    0.9180   -0.0336   -6.0337 C   0  0  0  0  0  0  0  0  0  0  0  0
   -0.1312   -0.8417   -5.6182 C   0  0  0  0  0  0  0  0  0  0  0  0
   -0.3845   -0.8660   -1.3663 N   0  0  0  0  0  0  0  0  0  0  0  0
   -0.0813   -2.1582   -1.9916 C   0  0  0  0  0  0  0  0  0  0  0  0
    0.3365   -1.9988   -3.4512 C   0  0  0  0  0  0  0  0  0  0  0  0
   -1.0059    0.1742   -3.4749 C   0  0  0  0  0  0  0  0  0  0  0  0
   -1.4583   -0.1555   -2.0534 C   0  0  0  0  0  0  0  0  0  0  0  0
    3.2904   -2.0370    0.7386 N   0  0  0  0  0  0  0  0  0  0  0  0
    1.9669   -1.9677    0.3758 C   0  0  0  0  0  0  0  0  0  0  0  0
    1.6761   -0.6678   -0.0044 C   0  0  0  0  0  0  0  0  0  0  0  0
    2.8747    0.0828    0.2676 C   0  0  0  0  0  0  0  0  0  0  0  0
    3.1872    1.4586    0.3239 C   0  0  0  0  0  0  0  0  0  0  0  0
    4.5213    1.8628    0.4436 C   0  0  0  0  0  0  0  0  0  0  0  0
    5.5437    0.9195    0.4524 C   0  0  0  0  0  0  0  0  0  0  0  0
    5.2579   -0.4491    0.4879 C   0  0  0  0  0  0  0  0  0  0  0  0
    3.9089   -0.8348    0.4703 C   0  0  0  0  0  0  0  0  0  0  0  0
    3.7751   -3.0187    1.6968 C   0  0  0  0  0  0  0  0  0  0  0  0
    3.9802   -4.4312    1.1408 C   0  0  0  0  0  0  0  0  0  0  0  0
    4.3497   -5.3692    2.2221 N   0  0  0  0  0  0  0  0  0  0  0  0
    3.2126   -5.6989    3.0893 C   0  0  0  0  0  0  0  0  0  0  0  0
    4.9166   -6.6035    1.6782 C   0  0  0  0  0  0  0  0  0  0  0  0
   -1.6225   -3.4384   -5.7838 H   0  0  0  0  0  0  0  0  0  0  0  0
   -2.8949   -2.2454   -6.2217 H   0  0  0  0  0  0  0  0  0  0  0  0
   -1.1707   -2.1069   -8.6010 H   0  0  0  0  0  0  0  0  0  0  0  0
    0.6880   -0.6469   -9.3799 H   0  0  0  0  0  0  0  0  0  0  0  0
    2.0212    0.6601   -7.7487 H   0  0  0  0  0  0  0  0  0  0  0  0
    1.5100    0.5337   -5.3212 H   0  0  0  0  0  0  0  0  0  0  0  0
    0.7011   -2.7117   -1.4855 H   0  0  0  0  0  0  0  0  0  0  0  0
   -0.9878   -2.7721   -1.9209 H   0  0  0  0  0  0  0  0  0  0  0  0
    1.3488   -1.5779   -3.4860 H   0  0  0  0  0  0  0  0  0  0  0  0
    0.3887   -3.0004   -3.9009 H   0  0  0  0  0  0  0  0  0  0  0  0
   -0.1400    0.8479   -3.4290 H   0  0  0  0  0  0  0  0  0  0  0  0
   -1.8123    0.7099   -3.9896 H   0  0  0  0  0  0  0  0  0  0  0  0
   -2.3476   -0.7960   -2.0576 H   0  0  0  0  0  0  0  0  0  0  0  0
   -1.7313    0.7657   -1.5309 H   0  0  0  0  0  0  0  0  0  0  0  0
    1.3257   -2.8320    0.4964 H   0  0  0  0  0  0  0  0  0  0  0  0
    2.3932    2.2013    0.2991 H   0  0  0  0  0  0  0  0  0  0  0  0
    4.7562    2.9223    0.5095 H   0  0  0  0  0  0  0  0  0  0  0  0
    6.5791    1.2527    0.4691 H   0  0  0  0  0  0  0  0  0  0  0  0
    6.0580   -1.1803    0.5409 H   0  0  0  0  0  0  0  0  0  0  0  0
    4.7006   -2.6412    2.1436 H   0  0  0  0  0  0  0  0  0  0  0  0
    3.0192   -3.0144    2.4905 H   0  0  0  0  0  0  0  0  0  0  0  0
    3.0932   -4.7861    0.6006 H   0  0  0  0  0  0  0  0  0  0  0  0
    4.7929   -4.3764    0.4039 H   0  0  0  0  0  0  0  0  0  0  0  0
    2.4482   -6.2824    2.5640 H   0  0  0  0  0  0  0  0  0  0  0  0
    3.5571   -6.2766    3.9544 H   0  0  0  0  0  0  0  0  0  0  0  0
    2.7310   -4.8079    3.5022 H   0  0  0  0  0  0  0  0  0  0  0  0
    4.1925   -7.1586    1.0716 H   0  0  0  0  0  0  0  0  0  0  0  0
    5.7958   -6.3886    1.0614 H   0  0  0  0  0  0  0  0  0  0  0  0
    5.2580   -7.2539    2.4917 H   0  0  0  0  0  0  0  0  0  0  0  0
  1  2  2  0  0  0  0
  1 12  1  0  0  0  0
  1 19  1  0  0  0  0
  3  4  1  0  0  0  0
  3 11  1  0  0  0  0
  4  5  1  0  0  0  0
  5  6  1  0  0  0  0
  5 31  1  0  0  0  0
  5 32  1  0  0  0  0
  6  7  1  0  0  0  0
  6 11  2  0  0  0  0
  7  8  2  0  0  0  0
  7 33  1  0  0  0  0
  8  9  1  0  0  0  0
  8 34  1  0  0  0  0
  9 10  2  0  0  0  0
  9 35  1  0  0  0  0
 10 11  1  0  0  0  0
 10 36  1  0  0  0  0
 12 13  1  0  0  0  0
 12 16  1  0  0  0  0
 13 14  1  0  0  0  0
 13 37  1  0  0  0  0
 13 38  1  0  0  0  0
 14  3  1  0  0  0  0
 14 39  1  0  0  0  0
 14 40  1  0  0  0  0
 15 16  1  0  0  0  0
 15  3  1  0  0  0  0
 15 41  1  0  0  0  0
 15 42  1  0  0  0  0
 16 43  1  0  0  0  0
 16 44  1  0  0  0  0
 17 18  1  0  0  0  0
 17 25  1  0  0  0  0
 17 26  1  0  0  0  0
 18 19  2  0  0  0  0
 18 45  1  0  0  0  0
 19 20  1  0  0  0  0
 20 21  1  0  0  0  0
 20 25  2  0  0  0  0
 21 22  2  0  0  0  0
 21 46  1  0  0  0  0
 22 23  1  0  0  0  0
 22 47  1  0  0  0  0
 23 24  2  0  0  0  0
 23 48  1  0  0  0  0
 24 25  1  0  0  0  0
 24 49  1  0  0  0  0
 26 27  1  0  0  0  0
 26 50  1  0  0  0  0
 26 51  1  0  0  0  0
 27 28  1  0  0  0  0
 27 52  1  0  0  0  0
 27 53  1  0  0  0  0
 28 29  1  0  0  0  0
 28 30  1  0  0  0  0
 29 54  1  0  0  0  0
 29 55  1  0  0  0  0
 29 56  1  0  0  0  0
 30 57  1  0  0  0  0
 30 58  1  0  0  0  0
 30 59  1  0  0  0  0
M  END
>  <Mol_ID>
6093

>  <Formula>
C25H28ClN3O2

>  <MolWeight>
437.96172

>  <Cat>
S0007

>  <Name>
RO 5028442 (RG7713)

>  <Synonyms>
N/A

>  <Target>
Vasopressin Receptor

>  <Form>
free base

>  <CAS>
920022-47-5

>  <URL>
http://www.selleckchem.com/products/ro-5028442-rg7713.html

$$$$
