Rolipram.cdx
 OpenBabel08302519583D

 41 43  0  0  0  0  0  0  0  0999 V2000
    1.3065   -0.3509    0.0874 C   0  0  0  0  0  0  0  0  0  0  0  0
    0.3085   -1.3106   -0.1584 C   0  0  0  0  0  0  0  0  0  0  0  0
   -0.9750   -0.8965   -0.5652 C   0  0  0  0  0  0  0  0  0  0  0  0
   -1.3242    0.4441   -0.5549 C   0  0  0  0  0  0  0  0  0  0  0  0
   -0.4006    1.3884   -0.1005 C   0  0  0  0  0  0  0  0  0  0  0  0
    0.9466    0.9973    0.0784 C   0  0  0  0  0  0  0  0  0  0  0  0
   -0.9650    2.7048    0.4223 C   0  0  3  0  0  0  0  0  0  0  0  0
    2.5390   -0.7645    0.5175 O   0  0  0  0  0  0  0  0  0  0  0  0
    3.7797   -0.2040    0.0771 C   0  0  0  0  0  0  0  0  0  0  0  0
   -0.1973    3.2492    1.6308 C   0  0  0  0  0  0  0  0  0  0  0  0
    0.7387    4.1628    1.0423 N   0  0  0  0  0  0  0  0  0  0  0  0
    0.3602    4.5512   -0.2246 C   0  0  0  0  0  0  0  0  0  0  0  0
   -0.9362    3.8611   -0.5693 C   0  0  0  0  0  0  0  0  0  0  0  0
    4.2914    0.9917    0.8756 C   0  0  0  0  0  0  0  0  0  0  0  0
    4.9670    1.9322   -0.1139 C   0  0  0  0  0  0  0  0  0  0  0  0
    4.8568    1.3162   -1.5011 C   0  0  0  0  0  0  0  0  0  0  0  0
    3.9402    0.1038   -1.4058 C   0  0  0  0  0  0  0  0  0  0  0  0
    0.9554    5.3662   -0.9121 O   0  0  0  0  0  0  0  0  0  0  0  0
    0.3627   -2.6705   -0.0023 O   0  0  0  0  0  0  0  0  0  0  0  0
    1.5020   -3.2273    0.6323 C   0  0  0  0  0  0  0  0  0  0  0  0
   -1.7291   -1.6432   -0.7958 H   0  0  0  0  0  0  0  0  0  0  0  0
   -2.3494    0.7260   -0.7894 H   0  0  0  0  0  0  0  0  0  0  0  0
    1.6849    1.7513    0.3358 H   0  0  0  0  0  0  0  0  0  0  0  0
   -1.9981    2.5063    0.7383 H   0  0  0  0  0  0  0  0  0  0  0  0
    4.4963   -1.0117    0.2869 H   0  0  0  0  0  0  0  0  0  0  0  0
   -0.8509    3.8272    2.2917 H   0  0  0  0  0  0  0  0  0  0  0  0
    0.3236    2.4929    2.2246 H   0  0  0  0  0  0  0  0  0  0  0  0
    1.5656    4.5385    1.4864 H   0  0  0  0  0  0  0  0  0  0  0  0
   -1.7506    4.5676   -0.3651 H   0  0  0  0  0  0  0  0  0  0  0  0
   -0.9667    3.5508   -1.6149 H   0  0  0  0  0  0  0  0  0  0  0  0
    3.5181    1.5019    1.4541 H   0  0  0  0  0  0  0  0  0  0  0  0
    5.0324    0.6521    1.6122 H   0  0  0  0  0  0  0  0  0  0  0  0
    4.4879    2.9172   -0.0918 H   0  0  0  0  0  0  0  0  0  0  0  0
    6.0200    2.0916    0.1504 H   0  0  0  0  0  0  0  0  0  0  0  0
    4.4581    2.0441   -2.2166 H   0  0  0  0  0  0  0  0  0  0  0  0
    5.8489    1.0273   -1.8681 H   0  0  0  0  0  0  0  0  0  0  0  0
    4.4146   -0.7495   -1.9093 H   0  0  0  0  0  0  0  0  0  0  0  0
    2.9959    0.2762   -1.9254 H   0  0  0  0  0  0  0  0  0  0  0  0
    2.3685   -3.1590   -0.0297 H   0  0  0  0  0  0  0  0  0  0  0  0
    1.6941   -2.7835    1.6156 H   0  0  0  0  0  0  0  0  0  0  0  0
    1.2967   -4.2896    0.7969 H   0  0  0  0  0  0  0  0  0  0  0  0
  1  2  2  0  0  0  0
  1  8  1  0  0  0  0
  2  3  1  0  0  0  0
  2 19  1  0  0  0  0
  3  4  2  0  0  0  0
  3 21  1  0  0  0  0
  4  5  1  0  0  0  0
  4 22  1  0  0  0  0
  5  6  2  0  0  0  0
  5  7  1  0  0  0  0
  6  1  1  0  0  0  0
  6 23  1  0  0  0  0
  7 10  1  0  0  0  0
  7 24  1  0  0  0  0
  8  9  1  0  0  0  0
  9 14  1  0  0  0  0
  9 25  1  0  0  0  0
 10 11  1  0  0  0  0
 10 26  1  0  0  0  0
 10 27  1  0  0  0  0
 11 12  1  0  0  0  0
 11 28  1  0  0  0  0
 12 13  1  0  0  0  0
 12 18  2  0  0  0  0
 13  7  1  0  0  0  0
 13 29  1  0  0  0  0
 13 30  1  0  0  0  0
 14 15  1  0  0  0  0
 14 31  1  0  0  0  0
 14 32  1  0  0  0  0
 15 16  1  0  0  0  0
 15 33  1  0  0  0  0
 15 34  1  0  0  0  0
 16 17  1  0  0  0  0
 16 35  1  0  0  0  0
 16 36  1  0  0  0  0
 17  9  1  0  0  0  0
 17 37  1  0  0  0  0
 17 38  1  0  0  0  0
 19 20  1  0  0  0  0
 20 39  1  0  0  0  0
 20 40  1  0  0  0  0
 20 41  1  0  0  0  0
M  END
>  <Mol_ID>
252

>  <Formula>
C16H21NO3

>  <MolWeight>
275.34284

>  <Cat>
S1430

>  <Name>
Rolipram (ZK-62711)

>  <Synonyms>
ZK-62711, SB 95952

>  <Target>
PDE

>  <Form>
free base

>  <CAS>
61413-54-5

>  <URL>
http://selleckchem.com/products/Rolipram.html

$$$$
