Ropinirole HCl
 OpenBabel08302521433D

 43 44  0  0  0  0  0  0  0  0999 V2000
    1.3375   -3.1034   -4.0287 N   0  0  0  0  0  0  0  0  0  0  0  0
    0.7516   -1.8465   -4.0993 C   0  0  0  0  0  0  0  0  0  0  0  0
   -0.1559   -1.6971   -2.8693 C   0  0  0  0  0  0  0  0  0  0  0  0
   -0.0150   -3.0343   -2.1867 C   0  0  0  0  0  0  0  0  0  0  0  0
   -0.6331   -3.5355   -1.0369 C   0  0  0  0  0  0  0  0  0  0  0  0
   -0.1753   -4.7911   -0.5952 C   0  0  0  0  0  0  0  0  0  0  0  0
    0.7771   -5.5378   -1.3235 C   0  0  0  0  0  0  0  0  0  0  0  0
    1.3087   -5.0551   -2.5159 C   0  0  0  0  0  0  0  0  0  0  0  0
    0.9186   -3.7947   -2.9026 C   0  0  0  0  0  0  0  0  0  0  0  0
    0.9410   -1.0173   -4.9754 O   0  0  0  0  0  0  0  0  0  0  0  0
   -1.7814   -2.7835   -0.3751 C   0  0  0  0  0  0  0  0  0  0  0  0
   -2.4188   -3.4336    0.8854 C   0  0  0  0  0  0  0  0  0  0  0  0
   -3.5326   -2.6753    1.5022 N   0  0  0  0  0  0  0  0  0  0  0  0
   -4.7499   -2.6020    0.6521 C   0  0  0  0  0  0  0  0  0  0  0  0
   -5.4176   -3.9299    0.2399 C   0  0  0  0  0  0  0  0  0  0  0  0
   -6.7090   -3.7060   -0.5443 C   0  0  0  0  0  0  0  0  0  0  0  0
   -3.8828   -3.1743    2.8523 C   0  0  0  0  0  0  0  0  0  0  0  0
   -2.8075   -3.0635    3.9495 C   0  0  0  0  0  0  0  0  0  0  0  0
   -2.4095   -1.6364    4.3180 C   0  0  0  0  0  0  0  0  0  0  0  0
    1.9866   -3.4447   -4.7223 H   0  0  0  0  0  0  0  0  0  0  0  0
    0.2405   -0.8951   -2.2371 H   0  0  0  0  0  0  0  0  0  0  0  0
   -1.1830   -1.5066   -3.1866 H   0  0  0  0  0  0  0  0  0  0  0  0
   -0.5527   -5.2339    0.3233 H   0  0  0  0  0  0  0  0  0  0  0  0
    1.0878   -6.5135   -0.9543 H   0  0  0  0  0  0  0  0  0  0  0  0
    2.0110   -5.6412   -3.0961 H   0  0  0  0  0  0  0  0  0  0  0  0
   -1.4281   -1.7797   -0.1098 H   0  0  0  0  0  0  0  0  0  0  0  0
   -2.5583   -2.6735   -1.1410 H   0  0  0  0  0  0  0  0  0  0  0  0
   -2.7384   -4.4592    0.6648 H   0  0  0  0  0  0  0  0  0  0  0  0
   -1.6046   -3.5171    1.6120 H   0  0  0  0  0  0  0  0  0  0  0  0
   -5.4966   -1.9934    1.1814 H   0  0  0  0  0  0  0  0  0  0  0  0
   -4.5213   -2.0234   -0.2503 H   0  0  0  0  0  0  0  0  0  0  0  0
   -4.7402   -4.5235   -0.3830 H   0  0  0  0  0  0  0  0  0  0  0  0
   -5.6613   -4.5293    1.1233 H   0  0  0  0  0  0  0  0  0  0  0  0
   -6.5070   -3.2431   -1.5154 H   0  0  0  0  0  0  0  0  0  0  0  0
   -7.2110   -4.6628   -0.7286 H   0  0  0  0  0  0  0  0  0  0  0  0
   -7.4064   -3.0653    0.0052 H   0  0  0  0  0  0  0  0  0  0  0  0
   -4.7580   -2.6200    3.2181 H   0  0  0  0  0  0  0  0  0  0  0  0
   -4.1820   -4.2276    2.7942 H   0  0  0  0  0  0  0  0  0  0  0  0
   -3.1958   -3.5418    4.8554 H   0  0  0  0  0  0  0  0  0  0  0  0
   -1.9123   -3.6274    3.6771 H   0  0  0  0  0  0  0  0  0  0  0  0
   -3.2283   -1.1233    4.8309 H   0  0  0  0  0  0  0  0  0  0  0  0
   -1.5559   -1.6608    5.0052 H   0  0  0  0  0  0  0  0  0  0  0  0
   -2.1197   -1.0491    3.4427 H   0  0  0  0  0  0  0  0  0  0  0  0
  1  2  1  0  0  0  0
  1  9  1  0  0  0  0
  1 20  1  0  0  0  0
  2  3  1  0  0  0  0
  2 10  2  0  0  0  0
  3  4  1  0  0  0  0
  3 21  1  0  0  0  0
  3 22  1  0  0  0  0
  4  5  2  0  0  0  0
  4  9  1  0  0  0  0
  5  6  1  0  0  0  0
  5 11  1  0  0  0  0
  6  7  2  0  0  0  0
  6 23  1  0  0  0  0
  7  8  1  0  0  0  0
  7 24  1  0  0  0  0
  8  9  2  0  0  0  0
  8 25  1  0  0  0  0
 11 12  1  0  0  0  0
 11 26  1  0  0  0  0
 11 27  1  0  0  0  0
 12 13  1  0  0  0  0
 12 28  1  0  0  0  0
 12 29  1  0  0  0  0
 13 14  1  0  0  0  0
 13 17  1  0  0  0  0
 14 15  1  0  0  0  0
 14 30  1  0  0  0  0
 14 31  1  0  0  0  0
 15 16  1  0  0  0  0
 15 32  1  0  0  0  0
 15 33  1  0  0  0  0
 16 34  1  0  0  0  0
 16 35  1  0  0  0  0
 16 36  1  0  0  0  0
 17 18  1  0  0  0  0
 17 37  1  0  0  0  0
 17 38  1  0  0  0  0
 18 19  1  0  0  0  0
 18 39  1  0  0  0  0
 18 40  1  0  0  0  0
 19 41  1  0  0  0  0
 19 42  1  0  0  0  0
 19 43  1  0  0  0  0
M  END
>  <Mol_ID>
887

>  <Formula>
C16H25ClN2O

>  <MolWeight>
296.8355

>  <Cat>
S3189

>  <Name>
Ropinirole HCl

>  <Synonyms>
SKF-101468A

>  <Target>
Dopamine Receptor

>  <Form>
HCl

>  <CAS>
91374-20-8

>  <URL>
http://selleckchem.com/products/ropinirole-hydrochloride.html

$$$$
