Rosiridin
 OpenBabel08302521493D

 51 51  0  0  1  0  0  0  0  0999 V2000
    6.9281   -6.1040   -3.7620 O   0  0  0  0  0  0  0  0  0  0  0  0
    7.0304   -7.0568   -2.7084 C   0  0  0  0  0  0  0  0  0  0  0  0
    7.2082   -6.3174   -1.4062 C   0  0  0  0  0  0  0  0  0  0  0  0
    7.8947   -6.7220   -0.3087 C   0  0  0  0  0  0  0  0  0  0  0  0
    7.9315   -5.9390    1.0166 C   0  0  2  0  0  0  0  0  0  0  0  0
    8.6227   -8.0475   -0.2658 C   0  0  0  0  0  0  0  0  0  0  0  0
    7.6831   -4.4182    0.9327 C   0  0  0  0  0  0  0  0  0  0  0  0
    9.2074   -6.1475    1.6363 O   0  0  0  0  0  0  0  0  0  0  0  0
    7.7044   -3.7083    2.2739 C   0  0  0  0  0  0  0  0  0  0  0  0
    6.6810   -3.0590    2.8652 C   0  0  0  0  0  0  0  0  0  0  0  0
    6.8805   -2.2904    4.1433 C   0  0  0  0  0  0  0  0  0  0  0  0
    5.2856   -3.0293    2.3071 C   0  0  0  0  0  0  0  0  0  0  0  0
    8.9245   -6.9145   -5.7860 O   0  0  0  0  0  0  0  0  0  0  0  0
    3.3975   -8.1903   -6.2455 C   0  0  0  0  0  0  0  0  0  0  0  0
    2.5289   -7.1525   -5.7913 O   0  0  0  0  0  0  0  0  0  0  0  0
    8.1255   -9.1247   -7.4932 O   0  0  0  0  0  0  0  0  0  0  0  0
    5.3278   -9.2955   -8.0982 O   0  0  0  0  0  0  0  0  0  0  0  0
    6.5798   -6.6539   -5.0420 C   0  0  2  0  0  0  0  0  0  0  0  0
    5.2880   -7.2784   -5.0028 O   0  0  0  0  0  0  0  0  0  0  0  0
    7.6691   -7.5934   -5.6359 C   0  0  1  0  0  0  0  0  0  0  0  0
    4.8442   -7.6851   -6.3128 C   0  0  1  0  0  0  0  0  0  0  0  0
    7.1948   -8.1615   -6.9863 C   0  0  2  0  0  0  0  0  0  0  0  0
    5.7871   -8.7675   -6.8550 C   0  0  2  0  0  0  0  0  0  0  0  0
    6.1017   -7.6330   -2.6449 H   0  0  0  0  0  0  0  0  0  0  0  0
    7.8724   -7.7233   -2.9035 H   0  0  0  0  0  0  0  0  0  0  0  0
    6.6656   -5.3747   -1.3804 H   0  0  0  0  0  0  0  0  0  0  0  0
    7.1870   -6.3895    1.6834 H   0  0  0  0  0  0  0  0  0  0  0  0
    8.3406   -8.7240   -1.0763 H   0  0  0  0  0  0  0  0  0  0  0  0
    9.7011   -7.8873   -0.3291 H   0  0  0  0  0  0  0  0  0  0  0  0
    8.4041   -8.5755    0.6699 H   0  0  0  0  0  0  0  0  0  0  0  0
    8.4741   -3.9578    0.3286 H   0  0  0  0  0  0  0  0  0  0  0  0
    6.7340   -4.2146    0.4281 H   0  0  0  0  0  0  0  0  0  0  0  0
    9.8821   -5.9008    0.9840 H   0  0  0  0  0  0  0  0  0  0  0  0
    8.6790   -3.7026    2.7631 H   0  0  0  0  0  0  0  0  0  0  0  0
    6.5810   -1.2455    4.0029 H   0  0  0  0  0  0  0  0  0  0  0  0
    6.2768   -2.7184    4.9505 H   0  0  0  0  0  0  0  0  0  0  0  0
    7.9266   -2.2874    4.4687 H   0  0  0  0  0  0  0  0  0  0  0  0
    5.2635   -2.5255    1.3363 H   0  0  0  0  0  0  0  0  0  0  0  0
    4.8923   -4.0456    2.1985 H   0  0  0  0  0  0  0  0  0  0  0  0
    4.6026   -2.4893    2.9722 H   0  0  0  0  0  0  0  0  0  0  0  0
    8.9259   -6.4325   -6.6294 H   0  0  0  0  0  0  0  0  0  0  0  0
    3.0448   -8.4948   -7.2368 H   0  0  0  0  0  0  0  0  0  0  0  0
    3.2967   -9.0377   -5.5600 H   0  0  0  0  0  0  0  0  0  0  0  0
    2.7710   -6.9828   -4.8626 H   0  0  0  0  0  0  0  0  0  0  0  0
    8.1055   -9.9112   -6.9211 H   0  0  0  0  0  0  0  0  0  0  0  0
    5.5327   -8.6608   -8.8106 H   0  0  0  0  0  0  0  0  0  0  0  0
    6.5067   -5.7724   -5.6925 H   0  0  0  0  0  0  0  0  0  0  0  0
    7.8647   -8.4326   -4.9609 H   0  0  0  0  0  0  0  0  0  0  0  0
    4.8495   -6.8035   -6.9689 H   0  0  0  0  0  0  0  0  0  0  0  0
    7.1824   -7.3651   -7.7404 H   0  0  0  0  0  0  0  0  0  0  0  0
    5.8311   -9.6129   -6.1565 H   0  0  0  0  0  0  0  0  0  0  0  0
  1  2  1  0  0  0  0
  2  3  1  0  0  0  0
  2 24  1  0  0  0  0
  2 25  1  0  0  0  0
  3  4  2  0  0  0  0
  3 26  1  0  0  0  0
  4  6  1  0  0  0  0
  5  8  1  0  0  0  0
  5 27  1  1  0  0  0
  5  7  1  0  0  0  0
  5  4  1  0  0  0  0
  6 28  1  0  0  0  0
  6 29  1  0  0  0  0
  6 30  1  0  0  0  0
  7  9  1  0  0  0  0
  7 31  1  0  0  0  0
  7 32  1  0  0  0  0
  8 33  1  0  0  0  0
  9 10  2  0  0  0  0
  9 34  1  0  0  0  0
 10 11  1  0  0  0  0
 10 12  1  0  0  0  0
 11 35  1  0  0  0  0
 11 36  1  0  0  0  0
 11 37  1  0  0  0  0
 12 38  1  0  0  0  0
 12 39  1  0  0  0  0
 12 40  1  0  0  0  0
 13 41  1  0  0  0  0
 14 15  1  0  0  0  0
 14 42  1  0  0  0  0
 14 43  1  0  0  0  0
 15 44  1  0  0  0  0
 16 45  1  0  0  0  0
 17 46  1  0  0  0  0
 18 19  1  0  0  0  0
 18 20  1  0  0  0  0
 18 47  1  6  0  0  0
 18  1  1  0  0  0  0
 19 21  1  0  0  0  0
 20 13  1  0  0  0  0
 20 22  1  0  0  0  0
 20 48  1  1  0  0  0
 21 14  1  0  0  0  0
 21 23  1  0  0  0  0
 21 49  1  6  0  0  0
 22 16  1  0  0  0  0
 22 23  1  0  0  0  0
 22 50  1  6  0  0  0
 23 17  1  0  0  0  0
 23 51  1  1  0  0  0
M  END
>  <Mol_ID>
9836

>  <Formula>
C16H28O7

>  <MolWeight>
332.38932

>  <Cat>
E2453

>  <Name>
Rosiridin

>  <Synonyms>
NA

>  <Target>
MAO B

>  <Form>
free base

>  <CAS>
100462-37-1

>  <URL>
https://www.selleckchem.com/products/rosiridin.html

$$$$
