RPI-1
 OpenBabel08302521343D

 37 39  0  0  0  0  0  0  0  0999 V2000
   -1.7216   -1.9838    0.1001 C   0  0  0  0  0  0  0  0  0  0  0  0
    1.3365   -1.8117   -0.1214 O   0  0  0  0  0  0  0  0  0  0  0  0
   -3.8395    3.2788   -0.0640 O   0  0  0  0  0  0  0  0  0  0  0  0
   -5.0670    2.5930    0.1211 C   0  0  0  0  0  0  0  0  0  0  0  0
   -1.3096    4.6620   -0.4268 O   0  0  0  0  0  0  0  0  0  0  0  0
   -2.4473    5.5086   -0.3982 C   0  0  0  0  0  0  0  0  0  0  0  0
    0.6156   -7.0793    0.5299 O   0  0  0  0  0  0  0  0  0  0  0  0
   -1.3949    0.5152   -0.1118 C   0  0  0  0  0  0  0  0  0  0  0  0
   -0.9530   -0.8887   -0.0377 C   0  0  0  0  0  0  0  0  0  0  0  0
   -0.2313    1.2705   -0.2589 C   0  0  0  0  0  0  0  0  0  0  0  0
   -2.6262    1.1521   -0.0451 C   0  0  0  0  0  0  0  0  0  0  0  0
    0.5569   -0.8800   -0.1428 C   0  0  0  0  0  0  0  0  0  0  0  0
   -0.2401    2.6417   -0.3607 C   0  0  0  0  0  0  0  0  0  0  0  0
    0.8925    0.4540   -0.2782 N   0  0  0  0  0  0  0  0  0  0  0  0
   -2.6737    2.5637   -0.1359 C   0  0  0  0  0  0  0  0  0  0  0  0
   -1.4718    3.3050   -0.3038 C   0  0  0  0  0  0  0  0  0  0  0  0
   -1.1847   -3.3452    0.2163 C   0  0  0  0  0  0  0  0  0  0  0  0
   -0.8746   -3.8663    1.4804 C   0  0  0  0  0  0  0  0  0  0  0  0
   -0.9140   -4.1108   -0.9239 C   0  0  0  0  0  0  0  0  0  0  0  0
   -0.2730   -5.1223    1.6026 C   0  0  0  0  0  0  0  0  0  0  0  0
   -0.3183   -5.3702   -0.8020 C   0  0  0  0  0  0  0  0  0  0  0  0
    0.0070   -5.8609    0.4573 C   0  0  0  0  0  0  0  0  0  0  0  0
   -2.8029   -1.9118    0.1549 H   0  0  0  0  0  0  0  0  0  0  0  0
   -5.2832    1.9374   -0.7277 H   0  0  0  0  0  0  0  0  0  0  0  0
   -5.0752    2.0432    1.0671 H   0  0  0  0  0  0  0  0  0  0  0  0
   -5.8590    3.3474    0.1691 H   0  0  0  0  0  0  0  0  0  0  0  0
   -3.1415    5.2763   -1.2111 H   0  0  0  0  0  0  0  0  0  0  0  0
   -2.9310    5.4825    0.5830 H   0  0  0  0  0  0  0  0  0  0  0  0
   -2.0981    6.5330   -0.5603 H   0  0  0  0  0  0  0  0  0  0  0  0
    0.8572   -7.2470    1.4554 H   0  0  0  0  0  0  0  0  0  0  0  0
   -3.5225    0.5586    0.0820 H   0  0  0  0  0  0  0  0  0  0  0  0
    0.6811    3.2022   -0.4808 H   0  0  0  0  0  0  0  0  0  0  0  0
    1.8478    0.7638   -0.3703 H   0  0  0  0  0  0  0  0  0  0  0  0
   -1.0711   -3.2841    2.3772 H   0  0  0  0  0  0  0  0  0  0  0  0
   -1.1316   -3.7228   -1.9157 H   0  0  0  0  0  0  0  0  0  0  0  0
   -0.0150   -5.4941    2.5888 H   0  0  0  0  0  0  0  0  0  0  0  0
   -0.0837   -5.9534   -1.6875 H   0  0  0  0  0  0  0  0  0  0  0  0
  1  9  2  0  0  0  0
  1 17  1  0  0  0  0
  1 23  1  0  0  0  0
  2 12  2  0  0  0  0
  3  4  1  0  0  0  0
  3 15  1  0  0  0  0
  4 24  1  0  0  0  0
  4 25  1  0  0  0  0
  4 26  1  0  0  0  0
  5  6  1  0  0  0  0
  5 16  1  0  0  0  0
  6 27  1  0  0  0  0
  6 28  1  0  0  0  0
  6 29  1  0  0  0  0
  7 22  1  0  0  0  0
  7 30  1  0  0  0  0
  8  9  1  0  0  0  0
  8 10  1  0  0  0  0
  8 11  2  0  0  0  0
  9 12  1  0  0  0  0
 10 13  2  0  0  0  0
 10 14  1  0  0  0  0
 11 15  1  0  0  0  0
 11 31  1  0  0  0  0
 12 14  1  0  0  0  0
 13 16  1  0  0  0  0
 13 32  1  0  0  0  0
 14 33  1  0  0  0  0
 15 16  2  0  0  0  0
 17 18  2  0  0  0  0
 17 19  1  0  0  0  0
 18 20  1  0  0  0  0
 18 34  1  0  0  0  0
 19 21  2  0  0  0  0
 19 35  1  0  0  0  0
 20 22  2  0  0  0  0
 20 36  1  0  0  0  0
 21 22  1  0  0  0  0
 21 37  1  0  0  0  0
M  END
>  <Mol_ID>
6491

>  <Formula>
C17H15NO4

>  <MolWeight>
297.3053

>  <Cat>
E2682

>  <Name>
RPI-1

>  <Target>
Akt,JNK

>  <Form>
free base

>  <CAS>
269730-03-2

>  <URL>
http://www.selleckchem.com/products/rpi-1.html

$$$$
