RSV604
 OpenBabel08302521243D

 46 49  0  0  0  0  0  0  0  0999 V2000
   -3.6716    3.1178   -3.9078 F   0  0  0  0  0  0  0  0  0  0  0  0
   -3.7692    3.5060   -0.1808 O   0  0  0  0  0  0  0  0  0  0  0  0
   -0.5209    6.1119   -3.0405 O   0  0  0  0  0  0  0  0  0  0  0  0
   -4.4874    5.6258   -0.1080 N   0  0  0  0  0  0  0  0  0  0  0  0
   -1.8121    5.9372    1.2935 N   0  0  0  0  0  0  0  0  0  0  0  0
   -1.5610    5.9049   -1.0783 N   0  0  0  0  0  0  0  0  0  0  0  0
   -1.5584    4.1113   -2.5309 N   0  0  0  0  0  0  0  0  0  0  0  0
   -3.3563    7.7251    0.6032 C   0  0  0  0  0  0  0  0  0  0  0  0
   -2.0193    5.1703    0.0785 C   0  0  2  0  0  0  0  0  0  0  0  0
   -2.4004    7.0540    1.5340 C   0  0  0  0  0  0  0  0  0  0  0  0
   -4.3233    7.0190   -0.1328 C   0  0  0  0  0  0  0  0  0  0  0  0
   -3.4862    4.7040   -0.0221 C   0  0  0  0  0  0  0  0  0  0  0  0
   -1.9997    7.7406    2.8138 C   0  0  0  0  0  0  0  0  0  0  0  0
   -3.2364    9.1128    0.4218 C   0  0  0  0  0  0  0  0  0  0  0  0
   -5.1786    7.7169   -0.9997 C   0  0  0  0  0  0  0  0  0  0  0  0
   -4.0606    9.7884   -0.4772 C   0  0  0  0  0  0  0  0  0  0  0  0
   -5.0268    9.0916   -1.1912 C   0  0  0  0  0  0  0  0  0  0  0  0
   -0.6805    7.5703    3.2619 C   0  0  0  0  0  0  0  0  0  0  0  0
   -2.8773    8.5471    3.5456 C   0  0  0  0  0  0  0  0  0  0  0  0
   -1.1548    5.3935   -2.2735 C   0  0  0  0  0  0  0  0  0  0  0  0
   -0.2337    8.2250    4.4088 C   0  0  0  0  0  0  0  0  0  0  0  0
   -2.4215    9.2105    4.6891 C   0  0  0  0  0  0  0  0  0  0  0  0
   -1.1017    9.0520    5.1163 C   0  0  0  0  0  0  0  0  0  0  0  0
   -1.3440    3.5033   -3.7862 C   0  0  0  0  0  0  0  0  0  0  0  0
   -2.4520    2.9776   -4.4479 C   0  0  0  0  0  0  0  0  0  0  0  0
   -0.0751    3.3834   -4.3603 C   0  0  0  0  0  0  0  0  0  0  0  0
   -2.3252    2.3698   -5.6877 C   0  0  0  0  0  0  0  0  0  0  0  0
    0.0619    2.7279   -5.5897 C   0  0  0  0  0  0  0  0  0  0  0  0
   -1.0582    2.2307   -6.2564 C   0  0  0  0  0  0  0  0  0  0  0  0
   -5.3538    5.2274   -0.4443 H   0  0  0  0  0  0  0  0  0  0  0  0
   -1.2574    6.8539   -0.9257 H   0  0  0  0  0  0  0  0  0  0  0  0
   -2.4618    3.8827   -2.1382 H   0  0  0  0  0  0  0  0  0  0  0  0
   -1.4039    4.2653    0.1531 H   0  0  0  0  0  0  0  0  0  0  0  0
   -2.4790    9.6845    0.9556 H   0  0  0  0  0  0  0  0  0  0  0  0
   -5.9169    7.1887   -1.5954 H   0  0  0  0  0  0  0  0  0  0  0  0
   -3.9323   10.8583   -0.6317 H   0  0  0  0  0  0  0  0  0  0  0  0
   -5.6469    9.6095   -1.9199 H   0  0  0  0  0  0  0  0  0  0  0  0
    0.0097    6.9351    2.7126 H   0  0  0  0  0  0  0  0  0  0  0  0
   -3.9124    8.6729    3.2422 H   0  0  0  0  0  0  0  0  0  0  0  0
    0.7923    8.0907    4.7430 H   0  0  0  0  0  0  0  0  0  0  0  0
   -3.0957    9.8529    5.2508 H   0  0  0  0  0  0  0  0  0  0  0  0
   -0.7512    9.5693    6.0064 H   0  0  0  0  0  0  0  0  0  0  0  0
    0.8025    3.7690   -3.8519 H   0  0  0  0  0  0  0  0  0  0  0  0
   -3.2146    2.0082   -6.2031 H   0  0  0  0  0  0  0  0  0  0  0  0
    1.0496    2.6065   -6.0281 H   0  0  0  0  0  0  0  0  0  0  0  0
   -0.9500    1.7413   -7.2218 H   0  0  0  0  0  0  0  0  0  0  0  0
  1 25  1  0  0  0  0
  2 12  2  0  0  0  0
  3 20  2  0  0  0  0
  4 11  1  0  0  0  0
  4 12  1  0  0  0  0
  4 30  1  0  0  0  0
  5  9  1  0  0  0  0
  5 10  2  0  0  0  0
  6 20  1  0  0  0  0
  6 31  1  0  0  0  0
  7 20  1  0  0  0  0
  7 24  1  0  0  0  0
  7 32  1  0  0  0  0
  8 10  1  0  0  0  0
  8 11  2  0  0  0  0
  8 14  1  0  0  0  0
  9 12  1  0  0  0  0
  9 33  1  1  0  0  0
  9  6  1  0  0  0  0
 10 13  1  0  0  0  0
 11 15  1  0  0  0  0
 13 18  2  0  0  0  0
 13 19  1  0  0  0  0
 14 16  2  0  0  0  0
 14 34  1  0  0  0  0
 15 17  2  0  0  0  0
 15 35  1  0  0  0  0
 16 17  1  0  0  0  0
 16 36  1  0  0  0  0
 17 37  1  0  0  0  0
 18 21  1  0  0  0  0
 18 38  1  0  0  0  0
 19 22  2  0  0  0  0
 19 39  1  0  0  0  0
 21 23  2  0  0  0  0
 21 40  1  0  0  0  0
 22 23  1  0  0  0  0
 22 41  1  0  0  0  0
 23 42  1  0  0  0  0
 24 25  2  0  0  0  0
 24 26  1  0  0  0  0
 25 27  1  0  0  0  0
 26 28  2  0  0  0  0
 26 43  1  0  0  0  0
 27 29  2  0  0  0  0
 27 44  1  0  0  0  0
 28 29  1  0  0  0  0
 28 45  1  0  0  0  0
 29 46  1  0  0  0  0
M  END
>  <Mol_ID>
4987

>  <Formula>
C22H17FN4O2

>  <MolWeight>
388.3943832

>  <Cat>
S0470

>  <Name>
RSV604

>  <Synonyms>
A-60444

>  <Target>
RSV

>  <Form>
Free Base

>  <CAS>
676128-63-5

>  <URL>
http://www.selleckchem.com/products/rsv604.html

$$$$
