Rucaparib
 OpenBabel08302521303D

 42 45  0  0  0  0  0  0  0  0999 V2000
    1.0509    0.0981    0.2522 F   0  0  0  0  0  0  0  0  0  0  0  0
    4.8093   -3.3868   -0.9479 O   0  0  0  0  0  0  0  0  0  0  0  0
    5.4764    2.1523    0.2055 N   0  0  0  0  0  0  0  0  0  0  0  0
    6.2706   -2.5269    0.6273 N   0  0  0  0  0  0  0  0  0  0  0  0
   12.6632    4.2448   -0.3776 N   0  0  0  0  0  0  0  0  0  0  0  0
    6.5195    0.2674   -0.3274 C   0  0  0  0  0  0  0  0  0  0  0  0
    5.1386   -0.0080   -0.1046 C   0  0  0  0  0  0  0  0  0  0  0  0
    7.4555   -0.8016   -0.8198 C   0  0  0  0  0  0  0  0  0  0  0  0
    6.7294    1.6082   -0.0225 C   0  0  0  0  0  0  0  0  0  0  0  0
    4.4899    1.1912    0.1307 C   0  0  0  0  0  0  0  0  0  0  0  0
    4.3988   -1.2090   -0.1244 C   0  0  0  0  0  0  0  0  0  0  0  0
    7.5514   -1.9965    0.1446 C   0  0  0  0  0  0  0  0  0  0  0  0
    7.9653    2.3959    0.0934 C   0  0  0  0  0  0  0  0  0  0  0  0
    5.1625   -2.4774   -0.2146 C   0  0  0  0  0  0  0  0  0  0  0  0
    3.0981    1.2608    0.2638 C   0  0  0  0  0  0  0  0  0  0  0  0
    3.0109   -1.1703   -0.0282 C   0  0  0  0  0  0  0  0  0  0  0  0
    2.3873    0.0595    0.1541 C   0  0  0  0  0  0  0  0  0  0  0  0
    9.1583    1.7722    0.4805 C   0  0  0  0  0  0  0  0  0  0  0  0
    7.9896    3.7784   -0.1292 C   0  0  0  0  0  0  0  0  0  0  0  0
   10.3652    3.8743    0.4025 C   0  0  0  0  0  0  0  0  0  0  0  0
   10.3436    2.4938    0.6225 C   0  0  0  0  0  0  0  0  0  0  0  0
    9.1746    4.5106    0.0298 C   0  0  0  0  0  0  0  0  0  0  0  0
   11.6453    4.6535    0.5905 C   0  0  0  0  0  0  0  0  0  0  0  0
   13.9053    4.9728   -0.1668 C   0  0  0  0  0  0  0  0  0  0  0  0
    5.3042    3.1205    0.4298 H   0  0  0  0  0  0  0  0  0  0  0  0
    6.0597   -2.1022    1.5228 H   0  0  0  0  0  0  0  0  0  0  0  0
   12.8403    3.2472   -0.2774 H   0  0  0  0  0  0  0  0  0  0  0  0
    8.4522   -0.4106   -1.0398 H   0  0  0  0  0  0  0  0  0  0  0  0
    7.0706   -1.1593   -1.7851 H   0  0  0  0  0  0  0  0  0  0  0  0
    8.1047   -1.6900    1.0418 H   0  0  0  0  0  0  0  0  0  0  0  0
    8.1061   -2.8165   -0.3211 H   0  0  0  0  0  0  0  0  0  0  0  0
    2.5800    2.1984    0.4317 H   0  0  0  0  0  0  0  0  0  0  0  0
    2.4248   -2.0822   -0.0778 H   0  0  0  0  0  0  0  0  0  0  0  0
    9.1882    0.7096    0.6981 H   0  0  0  0  0  0  0  0  0  0  0  0
    7.0957    4.3139   -0.4364 H   0  0  0  0  0  0  0  0  0  0  0  0
   11.2485    1.9665    0.9130 H   0  0  0  0  0  0  0  0  0  0  0  0
    9.1607    5.5847   -0.1432 H   0  0  0  0  0  0  0  0  0  0  0  0
   11.4412    5.7253    0.4814 H   0  0  0  0  0  0  0  0  0  0  0  0
   11.9934    4.4933    1.6191 H   0  0  0  0  0  0  0  0  0  0  0  0
   14.3072    4.8033    0.8375 H   0  0  0  0  0  0  0  0  0  0  0  0
   14.6528    4.6318   -0.8896 H   0  0  0  0  0  0  0  0  0  0  0  0
   13.7619    6.0468   -0.3209 H   0  0  0  0  0  0  0  0  0  0  0  0
  1 17  1  0  0  0  0
  2 14  2  0  0  0  0
  3  9  1  0  0  0  0
  3 10  1  0  0  0  0
  3 25  1  0  0  0  0
  4 12  1  0  0  0  0
  4 14  1  0  0  0  0
  4 26  1  0  0  0  0
  5 23  1  0  0  0  0
  5 24  1  0  0  0  0
  5 27  1  0  0  0  0
  6  7  1  0  0  0  0
  6  8  1  0  0  0  0
  6  9  2  0  0  0  0
  7 10  2  0  0  0  0
  7 11  1  0  0  0  0
  8 12  1  0  0  0  0
  8 28  1  0  0  0  0
  8 29  1  0  0  0  0
  9 13  1  0  0  0  0
 10 15  1  0  0  0  0
 11 14  1  0  0  0  0
 11 16  2  0  0  0  0
 12 30  1  0  0  0  0
 12 31  1  0  0  0  0
 13 18  2  0  0  0  0
 13 19  1  0  0  0  0
 15 17  2  0  0  0  0
 15 32  1  0  0  0  0
 16 17  1  0  0  0  0
 16 33  1  0  0  0  0
 18 21  1  0  0  0  0
 18 34  1  0  0  0  0
 19 22  2  0  0  0  0
 19 35  1  0  0  0  0
 20 21  2  0  0  0  0
 20 22  1  0  0  0  0
 20 23  1  0  0  0  0
 21 36  1  0  0  0  0
 22 37  1  0  0  0  0
 23 38  1  0  0  0  0
 23 39  1  0  0  0  0
 24 40  1  0  0  0  0
 24 41  1  0  0  0  0
 24 42  1  0  0  0  0
M  END
>  <Mol_ID>
5600

>  <Formula>
C19H18FN3O

>  <MolWeight>
323.3641232

>  <Cat>
S4948

>  <Name>
Rucaparib

>  <Synonyms>
Rubraca, AG014699, PF01367338

>  <Target>
PARP

>  <Form>
Free Base

>  <CAS>
283173-50-2

>  <URL>
http://www.selleckchem.com/products/rucaparib.html

$$$$
