RVX-208(RVX-000222).cdx
 OpenBabel08302519583D

 49 51  0  0  0  0  0  0  0  0999 V2000
    0.3116   -2.7500   -1.0217 C   0  0  0  0  0  0  0  0  0  0  0  0
   -0.9597   -2.4836   -0.5219 C   0  0  0  0  0  0  0  0  0  0  0  0
   -1.3270   -1.2079   -0.0405 C   0  0  0  0  0  0  0  0  0  0  0  0
   -0.3750   -0.1786   -0.0892 C   0  0  0  0  0  0  0  0  0  0  0  0
    0.9285   -0.4507   -0.5603 C   0  0  0  0  0  0  0  0  0  0  0  0
    1.2554   -1.7325   -1.0229 C   0  0  0  0  0  0  0  0  0  0  0  0
   -0.5834    1.2421    0.2853 C   0  0  0  0  0  0  0  0  0  0  0  0
    0.5423    1.9818    0.4927 N   0  0  0  0  0  0  0  0  0  0  0  0
    1.7418    1.6472   -0.0645 C   0  0  0  0  0  0  0  0  0  0  0  0
    1.9504    0.5048   -0.6136 N   0  0  0  0  0  0  0  0  0  0  0  0
    0.7523   -3.9422   -1.5172 O   0  0  0  0  0  0  0  0  0  0  0  0
   -2.6120   -1.2462    0.4215 O   0  0  0  0  0  0  0  0  0  0  0  0
   -3.2085   -0.1432    1.0772 C   0  0  0  0  0  0  0  0  0  0  0  0
   -0.2100   -4.9809   -1.6439 C   0  0  0  0  0  0  0  0  0  0  0  0
   -1.6557    1.8254    0.3300 O   0  0  0  0  0  0  0  0  0  0  0  0
    2.7514    2.7197   -0.0690 C   0  0  0  0  0  0  0  0  0  0  0  0
    2.7946    3.6183    0.9894 C   0  0  0  0  0  0  0  0  0  0  0  0
    3.6667    4.7126    0.9751 C   0  0  0  0  0  0  0  0  0  0  0  0
    4.5960    4.8300   -0.0905 C   0  0  0  0  0  0  0  0  0  0  0  0
    4.5112    3.9433   -1.1946 C   0  0  0  0  0  0  0  0  0  0  0  0
    3.5915    2.8812   -1.1635 C   0  0  0  0  0  0  0  0  0  0  0  0
    5.3067    4.1113   -2.4585 C   0  0  0  0  0  0  0  0  0  0  0  0
    5.6260    5.7571   -0.1375 O   0  0  0  0  0  0  0  0  0  0  0  0
    3.4803    5.6821    2.1153 C   0  0  0  0  0  0  0  0  0  0  0  0
    6.1557    6.0953    1.1547 C   0  0  0  0  0  0  0  0  0  0  0  0
    7.6060    6.5567    1.1271 C   0  0  0  0  0  0  0  0  0  0  0  0
    7.7271    7.8320    0.5101 O   0  0  0  0  0  0  0  0  0  0  0  0
   -1.7136   -3.2658   -0.4799 H   0  0  0  0  0  0  0  0  0  0  0  0
    2.2592   -1.9242   -1.3943 H   0  0  0  0  0  0  0  0  0  0  0  0
    0.3404    2.9509    0.7017 H   0  0  0  0  0  0  0  0  0  0  0  0
   -2.5827    0.2409    1.8888 H   0  0  0  0  0  0  0  0  0  0  0  0
   -3.4982    0.6142    0.3454 H   0  0  0  0  0  0  0  0  0  0  0  0
   -4.1412   -0.4876    1.5331 H   0  0  0  0  0  0  0  0  0  0  0  0
   -0.5788   -5.2915   -0.6623 H   0  0  0  0  0  0  0  0  0  0  0  0
   -1.0334   -4.6793   -2.2999 H   0  0  0  0  0  0  0  0  0  0  0  0
    0.2816   -5.8443   -2.1027 H   0  0  0  0  0  0  0  0  0  0  0  0
    2.1371    3.4819    1.8461 H   0  0  0  0  0  0  0  0  0  0  0  0
    3.5131    2.1884   -1.9986 H   0  0  0  0  0  0  0  0  0  0  0  0
    4.9557    4.9881   -3.0147 H   0  0  0  0  0  0  0  0  0  0  0  0
    6.3782    4.2057   -2.2530 H   0  0  0  0  0  0  0  0  0  0  0  0
    5.1856    3.2456   -3.1237 H   0  0  0  0  0  0  0  0  0  0  0  0
    4.2821    5.5967    2.8531 H   0  0  0  0  0  0  0  0  0  0  0  0
    3.3918    6.7068    1.7419 H   0  0  0  0  0  0  0  0  0  0  0  0
    2.5525    5.4811    2.6648 H   0  0  0  0  0  0  0  0  0  0  0  0
    5.5636    6.9278    1.5433 H   0  0  0  0  0  0  0  0  0  0  0  0
    6.1262    5.2209    1.8147 H   0  0  0  0  0  0  0  0  0  0  0  0
    7.9522    6.6621    2.1614 H   0  0  0  0  0  0  0  0  0  0  0  0
    8.2500    5.8461    0.6065 H   0  0  0  0  0  0  0  0  0  0  0  0
    7.3077    7.7573   -0.3680 H   0  0  0  0  0  0  0  0  0  0  0  0
  1  2  2  0  0  0  0
  1 11  1  0  0  0  0
  2  3  1  0  0  0  0
  2 28  1  0  0  0  0
  3  4  2  0  0  0  0
  3 12  1  0  0  0  0
  4  5  1  0  0  0  0
  4  7  1  0  0  0  0
  5  6  2  0  0  0  0
  6  1  1  0  0  0  0
  6 29  1  0  0  0  0
  7  8  1  0  0  0  0
  7 15  2  0  0  0  0
  8  9  1  0  0  0  0
  8 30  1  0  0  0  0
  9 10  2  0  0  0  0
  9 16  1  0  0  0  0
 10  5  1  0  0  0  0
 11 14  1  0  0  0  0
 12 13  1  0  0  0  0
 13 31  1  0  0  0  0
 13 32  1  0  0  0  0
 13 33  1  0  0  0  0
 14 34  1  0  0  0  0
 14 35  1  0  0  0  0
 14 36  1  0  0  0  0
 16 17  2  0  0  0  0
 17 18  1  0  0  0  0
 17 37  1  0  0  0  0
 18 19  2  0  0  0  0
 18 24  1  0  0  0  0
 19 20  1  0  0  0  0
 19 23  1  0  0  0  0
 20 21  2  0  0  0  0
 20 22  1  0  0  0  0
 21 16  1  0  0  0  0
 21 38  1  0  0  0  0
 22 39  1  0  0  0  0
 22 40  1  0  0  0  0
 22 41  1  0  0  0  0
 23 25  1  0  0  0  0
 24 42  1  0  0  0  0
 24 43  1  0  0  0  0
 24 44  1  0  0  0  0
 25 26  1  0  0  0  0
 25 45  1  0  0  0  0
 25 46  1  0  0  0  0
 26 27  1  0  0  0  0
 26 47  1  0  0  0  0
 26 48  1  0  0  0  0
 27 49  1  0  0  0  0
M  END
>  <Mol_ID>
2318

>  <Formula>
C20H22N2O5

>  <MolWeight>
370.39908

>  <Cat>
S7295

>  <Name>
Apabetalone (RVX-208)

>  <Synonyms>
RVX-000222

>  <Target>
Epigenetic Reader Domain

>  <Form>
free base

>  <CAS>
1044870-39-4

>  <URL>
http://selleckchem.com/products/rvx-208.html

$$$$
