(S)-(-)-1-Phenylethanol
 OpenBabel08302521303D

 19 19  0  0  0  0  0  0  0  0999 V2000
    1.3617   -0.2344    0.0789 C   0  0  0  0  0  0  0  0  0  0  0  0
    0.4675   -1.3141    0.0456 C   0  0  0  0  0  0  0  0  0  0  0  0
   -0.9092   -1.0942   -0.0356 C   0  0  0  0  0  0  0  0  0  0  0  0
   -1.4079    0.2055   -0.0869 C   0  0  0  0  0  0  0  0  0  0  0  0
   -0.5304    1.2872   -0.0717 C   0  0  0  0  0  0  0  0  0  0  0  0
    0.8457    1.0694    0.0042 C   0  0  0  0  0  0  0  0  0  0  0  0
    2.8493   -0.4785    0.2068 C   0  0  1  0  0  0  0  0  0  0  0  0
    3.5306    0.0582   -0.9248 O   0  0  0  0  0  0  0  0  0  0  0  0
    3.4361    0.1316    1.4737 C   0  0  0  0  0  0  0  0  0  0  0  0
    0.8351   -2.3369    0.0912 H   0  0  0  0  0  0  0  0  0  0  0  0
   -1.5939   -1.9383   -0.0513 H   0  0  0  0  0  0  0  0  0  0  0  0
   -2.4802    0.3762   -0.1381 H   0  0  0  0  0  0  0  0  0  0  0  0
   -0.9169    2.3023   -0.1143 H   0  0  0  0  0  0  0  0  0  0  0  0
    1.5191    1.9232    0.0140 H   0  0  0  0  0  0  0  0  0  0  0  0
    3.0498   -1.5559    0.2137 H   0  0  0  0  0  0  0  0  0  0  0  0
    2.9591   -0.0936   -1.6965 H   0  0  0  0  0  0  0  0  0  0  0  0
    2.9303   -0.2443    2.3691 H   0  0  0  0  0  0  0  0  0  0  0  0
    4.5035   -0.1056    1.5487 H   0  0  0  0  0  0  0  0  0  0  0  0
    3.3627    1.2250    1.4686 H   0  0  0  0  0  0  0  0  0  0  0  0
  1  2  2  0  0  0  0
  1  7  1  0  0  0  0
  2  3  1  0  0  0  0
  2 10  1  0  0  0  0
  3  4  2  0  0  0  0
  3 11  1  0  0  0  0
  4  5  1  0  0  0  0
  4 12  1  0  0  0  0
  5  6  2  0  0  0  0
  5 13  1  0  0  0  0
  6  1  1  0  0  0  0
  6 14  1  0  0  0  0
  7  8  1  0  0  0  0
  7  9  1  0  0  0  0
  7 15  1  1  0  0  0
  8 16  1  0  0  0  0
  9 17  1  0  0  0  0
  9 18  1  0  0  0  0
  9 19  1  0  0  0  0
M  END
>  <Mol_ID>
5515

>  <Formula>
C8H10O

>  <MolWeight>
122.1644

>  <Cat>
S3365

>  <Name>
(S)-(-)-1-Phenylethanol

>  <Synonyms>
(S)-1-Phenylethanol, (S)-(-)-Phenylethanol

>  <Target>
Others

>  <Form>
Free Base

>  <CAS>
1445-91-6

>  <URL>
https://www.selleckchem.com/products/s-1-phenylethanol.html

$$$$
