(S)-(?)-Limonene
 OpenBabel08302520383D

 26 26  0  0  0  0  0  0  0  0999 V2000
   -1.8614   -0.1117    0.2721 C   0  0  1  0  0  0  0  0  0  0  0  0
   -3.3445   -0.1128   -0.0980 C   0  0  0  0  0  0  0  0  0  0  0  0
   -1.0693   -1.2962   -0.3112 C   0  0  0  0  0  0  0  0  0  0  0  0
   -1.1965    1.2222   -0.1295 C   0  0  0  0  0  0  0  0  0  0  0  0
   -4.2930    0.5124    0.8935 C   0  0  0  0  0  0  0  0  0  0  0  0
   -3.8458   -0.6357   -1.2292 C   0  0  0  0  0  0  0  0  0  0  0  0
    0.3956   -1.2836    0.1302 C   0  0  0  0  0  0  0  0  0  0  0  0
    0.3075    1.1998   -0.0803 C   0  0  0  0  0  0  0  0  0  0  0  0
    1.0374    0.0770    0.0462 C   0  0  0  0  0  0  0  0  0  0  0  0
    2.5378    0.0941    0.0985 C   0  0  0  0  0  0  0  0  0  0  0  0
   -1.7941   -0.2111    1.3654 H   0  0  0  0  0  0  0  0  0  0  0  0
   -1.5262   -2.2458   -0.0061 H   0  0  0  0  0  0  0  0  0  0  0  0
   -1.0915   -1.2674   -1.4077 H   0  0  0  0  0  0  0  0  0  0  0  0
   -1.5555    2.0187    0.5349 H   0  0  0  0  0  0  0  0  0  0  0  0
   -1.4913    1.5068   -1.1484 H   0  0  0  0  0  0  0  0  0  0  0  0
   -4.8366    1.3446    0.4347 H   0  0  0  0  0  0  0  0  0  0  0  0
   -5.0177   -0.2312    1.2452 H   0  0  0  0  0  0  0  0  0  0  0  0
   -3.7691    0.9019    1.7708 H   0  0  0  0  0  0  0  0  0  0  0  0
   -3.2214   -1.0909   -1.9917 H   0  0  0  0  0  0  0  0  0  0  0  0
   -4.9118   -0.6116   -1.4378 H   0  0  0  0  0  0  0  0  0  0  0  0
    0.9457   -1.9908   -0.5030 H   0  0  0  0  0  0  0  0  0  0  0  0
    0.4759   -1.6466    1.1621 H   0  0  0  0  0  0  0  0  0  0  0  0
    0.8032    2.1646   -0.1599 H   0  0  0  0  0  0  0  0  0  0  0  0
    2.8907   -0.3621    1.0288 H   0  0  0  0  0  0  0  0  0  0  0  0
    2.9514   -0.4717   -0.7434 H   0  0  0  0  0  0  0  0  0  0  0  0
    2.9425    1.1099    0.0476 H   0  0  0  0  0  0  0  0  0  0  0  0
  1  3  1  0  0  0  0
  1  4  1  0  0  0  0
  1 11  1  1  0  0  0
  1  2  1  0  0  0  0
  2  5  1  0  0  0  0
  2  6  2  0  0  0  0
  3  7  1  0  0  0  0
  3 12  1  0  0  0  0
  3 13  1  0  0  0  0
  4  8  1  0  0  0  0
  4 14  1  0  0  0  0
  4 15  1  0  0  0  0
  5 16  1  0  0  0  0
  5 17  1  0  0  0  0
  5 18  1  0  0  0  0
  6 19  1  0  0  0  0
  6 20  1  0  0  0  0
  7  9  1  0  0  0  0
  7 21  1  0  0  0  0
  7 22  1  0  0  0  0
  8  9  2  0  0  0  0
  8 23  1  0  0  0  0
  9 10  1  0  0  0  0
 10 24  1  0  0  0  0
 10 25  1  0  0  0  0
 10 26  1  0  0  0  0
M  END
>  <Mol_ID>
3537

>  <Formula>
C10H16

>  <MolWeight>
136.23404

>  <Cat>
S6055

>  <Name>
(S)-(?)-Limonene

>  <Synonyms>
N/A

>  <Target>
Others

>  <Form>
free base

>  <CAS>
5989-54-8

>  <URL>
http://www.selleck.cn/products/limonene.html

$$$$
