(S)-(?)-Perillyl alcohol
 OpenBabel08302521363D

 27 27  0  0  1  0  0  0  0  0999 V2000
    3.1175    1.0371    0.9697 C   0  0  0  0  0  0  0  0  0  0  0  0
    4.5927    1.3156    1.0831 C   0  0  0  0  0  0  0  0  0  0  0  0
    2.2637    1.7605    1.7174 C   0  0  0  0  0  0  0  0  0  0  0  0
    2.4805   -3.4307   -2.8247 C   0  0  0  0  0  0  0  0  0  0  0  0
    1.1751   -3.3658   -3.3791 O   0  0  0  0  0  0  0  0  0  0  0  0
    2.6398   -0.0645    0.0269 C   0  0  1  0  0  0  0  0  0  0  0  0
    3.0447    0.1855   -1.4369 C   0  0  0  0  0  0  0  0  0  0  0  0
    3.1166   -1.4594    0.4889 C   0  0  0  0  0  0  0  0  0  0  0  0
    2.5174   -0.9070   -2.3777 C   0  0  0  0  0  0  0  0  0  0  0  0
    2.9447   -2.5409   -0.5419 C   0  0  0  0  0  0  0  0  0  0  0  0
    2.6581   -2.3099   -1.8358 C   0  0  0  0  0  0  0  0  0  0  0  0
    4.8070    2.3593    0.8294 H   0  0  0  0  0  0  0  0  0  0  0  0
    4.9387    1.1237    2.1045 H   0  0  0  0  0  0  0  0  0  0  0  0
    5.1873    0.6872    0.4152 H   0  0  0  0  0  0  0  0  0  0  0  0
    1.1899    1.6024    1.6897 H   0  0  0  0  0  0  0  0  0  0  0  0
    2.6217    2.5363    2.3905 H   0  0  0  0  0  0  0  0  0  0  0  0
    3.2093   -3.3538   -3.6377 H   0  0  0  0  0  0  0  0  0  0  0  0
    2.6020   -4.4143   -2.3593 H   0  0  0  0  0  0  0  0  0  0  0  0
    0.5634   -3.2297   -2.6352 H   0  0  0  0  0  0  0  0  0  0  0  0
    1.5365   -0.0804    0.0479 H   0  0  0  0  0  0  0  0  0  0  0  0
    2.6698    1.1593   -1.7762 H   0  0  0  0  0  0  0  0  0  0  0  0
    4.1367    0.2218   -1.5283 H   0  0  0  0  0  0  0  0  0  0  0  0
    4.1752   -1.4387    0.7727 H   0  0  0  0  0  0  0  0  0  0  0  0
    2.5560   -1.7430    1.3890 H   0  0  0  0  0  0  0  0  0  0  0  0
    1.4579   -0.7215   -2.5920 H   0  0  0  0  0  0  0  0  0  0  0  0
    3.0554   -0.8257   -3.3311 H   0  0  0  0  0  0  0  0  0  0  0  0
    3.0696   -3.5586   -0.1841 H   0  0  0  0  0  0  0  0  0  0  0  0
  1  2  1  0  0  0  0
  1  3  2  0  0  0  0
  2 12  1  0  0  0  0
  2 13  1  0  0  0  0
  2 14  1  0  0  0  0
  3 15  1  0  0  0  0
  3 16  1  0  0  0  0
  4  5  1  0  0  0  0
  4 11  1  0  0  0  0
  4 17  1  0  0  0  0
  4 18  1  0  0  0  0
  5 19  1  0  0  0  0
  6  7  1  0  0  0  0
  6  8  1  0  0  0  0
  6 20  1  1  0  0  0
  6  1  1  0  0  0  0
  7  9  1  0  0  0  0
  7 21  1  0  0  0  0
  7 22  1  0  0  0  0
  8 10  1  0  0  0  0
  8 23  1  0  0  0  0
  8 24  1  0  0  0  0
  9 11  1  0  0  0  0
  9 25  1  0  0  0  0
  9 26  1  0  0  0  0
 10 11  2  0  0  0  0
 10 27  1  0  0  0  0
M  END
>  <Mol_ID>
7041

>  <Formula>
C10H16O

>  <MolWeight>
152.23344

>  <Cat>
E4046

>  <Name>
(S)-(?)-Perillyl alcohol

>  <Synonyms>
(-)-Perillyl alcohol

>  <Target>
Ras

>  <Form>
Free base

>  <CAS>
18457-55-1

>  <URL>
https://www.selleckchem.com/products/s-perillyl-alcohol.html

$$$$
