(S)-N-Glycidylphthalimide
 OpenBabel08302521373D

 24 26  0  0  1  0  0  0  0  0999 V2000
    3.0251    1.6125    2.3538 O   0  0  0  0  0  0  0  0  0  0  0  0
    5.5168   -2.1989    1.7427 O   0  0  0  0  0  0  0  0  0  0  0  0
    4.6173    0.2208    0.2877 C   0  0  0  0  0  0  0  0  0  0  0  0
    3.5658   -0.1929    3.7785 C   0  0  0  0  0  0  0  0  0  0  0  0
    4.3249   -1.3367    3.6048 C   0  0  0  0  0  0  0  0  0  0  0  0
    3.6039    0.5583    2.5273 C   0  0  0  0  0  0  0  0  0  0  0  0
    2.9160    0.0868    4.9645 C   0  0  0  0  0  0  0  0  0  0  0  0
    4.8358   -1.3199    2.2328 C   0  0  0  0  0  0  0  0  0  0  0  0
    4.4864   -2.2617    4.6151 C   0  0  0  0  0  0  0  0  0  0  0  0
    4.3737   -0.1664    1.6610 N   0  0  0  0  0  0  0  0  0  0  0  0
    3.0638   -0.8361    6.0031 C   0  0  0  0  0  0  0  0  0  0  0  0
    3.8447   -1.9986    5.8307 C   0  0  0  0  0  0  0  0  0  0  0  0
    3.5871   -0.3848   -0.6142 C   0  0  1  0  0  0  0  0  0  0  0  0
    2.1405    0.0424   -0.5729 C   0  0  0  0  0  0  0  0  0  0  0  0
    3.0371    0.5127   -1.5888 O   0  0  0  0  0  0  0  0  0  0  0  0
    4.6080    1.3144    0.2203 H   0  0  0  0  0  0  0  0  0  0  0  0
    5.6100   -0.1343   -0.0104 H   0  0  0  0  0  0  0  0  0  0  0  0
    2.3164    0.9841    5.0781 H   0  0  0  0  0  0  0  0  0  0  0  0
    5.0848   -3.1552    4.4697 H   0  0  0  0  0  0  0  0  0  0  0  0
    2.5702   -0.6568    6.9566 H   0  0  0  0  0  0  0  0  0  0  0  0
    3.9452   -2.7006    6.6569 H   0  0  0  0  0  0  0  0  0  0  0  0
    3.8306   -1.3894   -0.9336 H   0  0  0  0  0  0  0  0  0  0  0  0
    1.3869   -0.6796   -0.8617 H   0  0  0  0  0  0  0  0  0  0  0  0
    1.8146    0.7544    0.1751 H   0  0  0  0  0  0  0  0  0  0  0  0
  1  6  2  0  0  0  0
  2  8  2  0  0  0  0
  3 10  1  0  0  0  0
  3 16  1  0  0  0  0
  3 17  1  0  0  0  0
  4  5  2  0  0  0  0
  4  6  1  0  0  0  0
  4  7  1  0  0  0  0
  5  8  1  0  0  0  0
  5  9  1  0  0  0  0
  6 10  1  0  0  0  0
  7 11  2  0  0  0  0
  7 18  1  0  0  0  0
  8 10  1  0  0  0  0
  9 12  2  0  0  0  0
  9 19  1  0  0  0  0
 11 12  1  0  0  0  0
 11 20  1  0  0  0  0
 12 21  1  0  0  0  0
 13 14  1  0  0  0  0
 13 15  1  0  0  0  0
 13 22  1  6  0  0  0
 13  3  1  0  0  0  0
 14 15  1  0  0  0  0
 14 23  1  0  0  0  0
 14 24  1  0  0  0  0
M  END
>  <Mol_ID>
7347

>  <Formula>
C11H9NO3

>  <MolWeight>
203.19406

>  <Cat>
E4394

>  <Name>
(S)-N-Glycidylphthalimide

>  <Synonyms>
(S)-N-Glycidylphthalimide

>  <Target>
Others

>  <Form>
free base

>  <CAS>
161596-47-0

>  <URL>
https://www.selleckchem.com/products/s-n-glycidylphthalimide.html

$$$$
