s1023.cdx
 OpenBabel08302521393D

 52 54  0  0  0  0  0  0  0  0999 V2000
    2.3714   -0.6280   -0.1013 C   0  0  0  0  0  0  0  0  0  0  0  0
    2.3866    0.7322    0.2268 C   0  0  0  0  0  0  0  0  0  0  0  0
    1.1639    1.4243    0.1566 C   0  0  0  0  0  0  0  0  0  0  0  0
   -0.0742    0.7601   -0.0331 C   0  0  0  0  0  0  0  0  0  0  0  0
   -0.0863   -0.6203   -0.2052 C   0  0  0  0  0  0  0  0  0  0  0  0
    1.1299   -1.2710   -0.2850 C   0  0  0  0  0  0  0  0  0  0  0  0
   -1.3325    1.3756    0.0080 C   0  0  0  0  0  0  0  0  0  0  0  0
   -2.4793    0.6691   -0.0573 N   0  0  0  0  0  0  0  0  0  0  0  0
   -2.3591   -0.6513   -0.1869 C   0  0  0  0  0  0  0  0  0  0  0  0
   -1.2144   -1.3326   -0.2883 N   0  0  0  0  0  0  0  0  0  0  0  0
   -1.4106    2.7896    0.1010 N   0  0  0  0  0  0  0  0  0  0  0  0
   -2.4656    3.5159    0.6942 C   0  0  0  0  0  0  0  0  0  0  0  0
   -2.7907    4.7946    0.2266 C   0  0  0  0  0  0  0  0  0  0  0  0
   -3.7964    5.5448    0.8426 C   0  0  0  0  0  0  0  0  0  0  0  0
   -4.4680    5.0371    1.9562 C   0  0  0  0  0  0  0  0  0  0  0  0
   -4.1274    3.7820    2.4578 C   0  0  0  0  0  0  0  0  0  0  0  0
   -3.1308    3.0324    1.8306 C   0  0  0  0  0  0  0  0  0  0  0  0
    3.3687   -1.5337   -0.2899 O   0  0  0  0  0  0  0  0  0  0  0  0
    4.7446   -1.2678   -0.0891 C   0  0  0  0  0  0  0  0  0  0  0  0
    5.0982   -1.4918    1.3752 C   0  0  0  0  0  0  0  0  0  0  0  0
    6.5145   -1.5607    1.5347 O   0  0  0  0  0  0  0  0  0  0  0  0
    3.5405    1.3649    0.6459 O   0  0  0  0  0  0  0  0  0  0  0  0
    3.3158    2.5696    1.4145 C   0  0  0  0  0  0  0  0  0  0  0  0
    4.5302    2.9905    2.2403 C   0  0  0  0  0  0  0  0  0  0  0  0
    4.2166    4.2076    2.9314 O   0  0  0  0  0  0  0  0  0  0  0  0
   -4.7815    3.2618    3.6201 C   0  0  0  0  0  0  0  0  0  0  0  0
   -5.3295    2.8201    4.5883 C   0  0  0  0  0  0  0  0  0  0  0  0
    6.8622   -1.6808    2.9081 C   0  0  0  0  0  0  0  0  0  0  0  0
    5.2689    4.6228    3.7941 C   0  0  0  0  0  0  0  0  0  0  0  0
    1.1246    2.4991    0.3118 H   0  0  0  0  0  0  0  0  0  0  0  0
    1.1226   -2.3453   -0.4714 H   0  0  0  0  0  0  0  0  0  0  0  0
   -3.2786   -1.2247   -0.2114 H   0  0  0  0  0  0  0  0  0  0  0  0
   -1.0871    3.1964   -0.7695 H   0  0  0  0  0  0  0  0  0  0  0  0
   -2.2760    5.2169   -0.6327 H   0  0  0  0  0  0  0  0  0  0  0  0
   -4.0525    6.5279    0.4590 H   0  0  0  0  0  0  0  0  0  0  0  0
   -5.2445    5.6286    2.4342 H   0  0  0  0  0  0  0  0  0  0  0  0
   -2.8648    2.0604    2.2395 H   0  0  0  0  0  0  0  0  0  0  0  0
    5.2827   -2.0162   -0.6825 H   0  0  0  0  0  0  0  0  0  0  0  0
    5.0672   -0.3010   -0.4827 H   0  0  0  0  0  0  0  0  0  0  0  0
    4.6901   -0.6810    1.9862 H   0  0  0  0  0  0  0  0  0  0  0  0
    4.6483   -2.4306    1.7239 H   0  0  0  0  0  0  0  0  0  0  0  0
    3.0534    3.3947    0.7390 H   0  0  0  0  0  0  0  0  0  0  0  0
    2.4842    2.4307    2.1239 H   0  0  0  0  0  0  0  0  0  0  0  0
    4.7770    2.2066    2.9642 H   0  0  0  0  0  0  0  0  0  0  0  0
    5.3943    3.1519    1.5884 H   0  0  0  0  0  0  0  0  0  0  0  0
   -5.8068    2.4178    5.4516 H   0  0  0  0  0  0  0  0  0  0  0  0
    6.6083   -0.7553    3.4330 H   0  0  0  0  0  0  0  0  0  0  0  0
    6.3468   -2.5287    3.3710 H   0  0  0  0  0  0  0  0  0  0  0  0
    7.9403   -1.8432    2.9818 H   0  0  0  0  0  0  0  0  0  0  0  0
    5.3835    3.9152    4.6206 H   0  0  0  0  0  0  0  0  0  0  0  0
    6.2084    4.7170    3.2424 H   0  0  0  0  0  0  0  0  0  0  0  0
    5.0136    5.6023    4.2128 H   0  0  0  0  0  0  0  0  0  0  0  0
  1  2  2  0  0  0  0
  1 18  1  0  0  0  0
  2  3  1  0  0  0  0
  2 22  1  0  0  0  0
  3  4  2  0  0  0  0
  3 30  1  0  0  0  0
  4  5  1  0  0  0  0
  4  7  1  0  0  0  0
  5  6  2  0  0  0  0
  6  1  1  0  0  0  0
  6 31  1  0  0  0  0
  7  8  2  0  0  0  0
  7 11  1  0  0  0  0
  8  9  1  0  0  0  0
  9 10  2  0  0  0  0
  9 32  1  0  0  0  0
 10  5  1  0  0  0  0
 11 12  1  0  0  0  0
 11 33  1  0  0  0  0
 12 13  2  0  0  0  0
 13 14  1  0  0  0  0
 13 34  1  0  0  0  0
 14 15  2  0  0  0  0
 14 35  1  0  0  0  0
 15 16  1  0  0  0  0
 15 36  1  0  0  0  0
 16 17  2  0  0  0  0
 16 26  1  0  0  0  0
 17 12  1  0  0  0  0
 17 37  1  0  0  0  0
 18 19  1  0  0  0  0
 19 20  1  0  0  0  0
 19 38  1  0  0  0  0
 19 39  1  0  0  0  0
 20 21  1  0  0  0  0
 20 40  1  0  0  0  0
 20 41  1  0  0  0  0
 21 28  1  0  0  0  0
 22 23  1  0  0  0  0
 23 24  1  0  0  0  0
 23 42  1  0  0  0  0
 23 43  1  0  0  0  0
 24 25  1  0  0  0  0
 24 44  1  0  0  0  0
 24 45  1  0  0  0  0
 25 29  1  0  0  0  0
 26 27  3  0  0  0  0
 27 46  1  0  0  0  0
 28 47  1  0  0  0  0
 28 48  1  0  0  0  0
 28 49  1  0  0  0  0
 29 50  1  0  0  0  0
 29 51  1  0  0  0  0
 29 52  1  0  0  0  0
M  END
>  <Mol_ID>
8211

>  <Formula>
C22H24ClN3O4

>  <MolWeight>
429.89666

>  <Cat>
S1023

>  <Name>
Erlotinib (OSI-774) HCl

>  <Synonyms>
CP358774, NSC 718781,OSI-774 HCl

>  <Target>
Autophagy,EGFR

>  <Form>
Hydrochloride

>  <CAS>
183319-69-9

>  <URL>
http://selleckchem.com/products/Erlotinib-Hydrochloride.html

$$$$
