S107
 OpenBabel08302521233D

 29 30  0  0  0  0  0  0  0  0999 V2000
    1.2739   -1.7418    0.5526 S   0  0  0  0  0  0  0  0  0  0  0  0
    2.2740   -0.9261   -0.7361 C   0  0  0  0  0  0  0  0  0  0  0  0
    2.7198    0.5011   -0.3864 C   0  0  0  0  0  0  0  0  0  0  0  0
    1.7115    1.5641   -0.3438 N   0  0  0  0  0  0  0  0  0  0  0  0
    0.7392    1.4047    0.7460 C   0  0  0  0  0  0  0  0  0  0  0  0
   -0.4239    0.4887    0.4430 C   0  0  0  0  0  0  0  0  0  0  0  0
   -0.2782   -0.8980    0.3034 C   0  0  0  0  0  0  0  0  0  0  0  0
   -1.6948    1.0631    0.2411 C   0  0  0  0  0  0  0  0  0  0  0  0
   -2.7987    0.2900   -0.1201 C   0  0  0  0  0  0  0  0  0  0  0  0
   -2.6417   -1.0842   -0.2668 C   0  0  0  0  0  0  0  0  0  0  0  0
   -1.3916   -1.6738   -0.0447 C   0  0  0  0  0  0  0  0  0  0  0  0
    1.0995    1.8402   -1.6417 C   0  0  0  0  0  0  0  0  0  0  0  0
   -3.9517    0.9991   -0.3075 O   0  0  0  0  0  0  0  0  0  0  0  0
   -5.0924    0.2701   -0.7408 C   0  0  0  0  0  0  0  0  0  0  0  0
    1.7475   -0.9632   -1.6954 H   0  0  0  0  0  0  0  0  0  0  0  0
    3.1742   -1.5396   -0.8557 H   0  0  0  0  0  0  0  0  0  0  0  0
    3.2637    0.4886    0.5677 H   0  0  0  0  0  0  0  0  0  0  0  0
    3.4777    0.7963   -1.1242 H   0  0  0  0  0  0  0  0  0  0  0  0
    0.3552    2.4047    0.9892 H   0  0  0  0  0  0  0  0  0  0  0  0
    1.2337    1.0846    1.6733 H   0  0  0  0  0  0  0  0  0  0  0  0
   -1.8254    2.1393    0.3447 H   0  0  0  0  0  0  0  0  0  0  0  0
   -3.4653   -1.7281   -0.5544 H   0  0  0  0  0  0  0  0  0  0  0  0
   -1.2914   -2.7509   -0.1639 H   0  0  0  0  0  0  0  0  0  0  0  0
    0.5363    0.9903   -2.0427 H   0  0  0  0  0  0  0  0  0  0  0  0
    0.4198    2.6973   -1.5757 H   0  0  0  0  0  0  0  0  0  0  0  0
    1.8658    2.1041   -2.3782 H   0  0  0  0  0  0  0  0  0  0  0  0
   -4.9138   -0.2025   -1.7123 H   0  0  0  0  0  0  0  0  0  0  0  0
   -5.3962   -0.4675    0.0088 H   0  0  0  0  0  0  0  0  0  0  0  0
   -5.9160    0.9804   -0.8627 H   0  0  0  0  0  0  0  0  0  0  0  0
  1  2  1  0  0  0  0
  1  7  1  0  0  0  0
  2  3  1  0  0  0  0
  2 15  1  0  0  0  0
  2 16  1  0  0  0  0
  3  4  1  0  0  0  0
  3 17  1  0  0  0  0
  3 18  1  0  0  0  0
  4  5  1  0  0  0  0
  4 12  1  0  0  0  0
  5  6  1  0  0  0  0
  5 19  1  0  0  0  0
  5 20  1  0  0  0  0
  6  7  2  0  0  0  0
  6  8  1  0  0  0  0
  7 11  1  0  0  0  0
  8  9  2  0  0  0  0
  8 21  1  0  0  0  0
  9 10  1  0  0  0  0
  9 13  1  0  0  0  0
 10 11  2  0  0  0  0
 10 22  1  0  0  0  0
 11 23  1  0  0  0  0
 12 24  1  0  0  0  0
 12 25  1  0  0  0  0
 12 26  1  0  0  0  0
 13 14  1  0  0  0  0
 14 27  1  0  0  0  0
 14 28  1  0  0  0  0
 14 29  1  0  0  0  0
M  END
>  <Mol_ID>
4764

>  <Formula>
C11H15NOS

>  <MolWeight>
209.3079

>  <Cat>
S6712

>  <Name>
S107

>  <Synonyms>
N/A

>  <Target>
Others

>  <Form>
Free Base

>  <CAS>
927871-76-9

>  <URL>
http://www.selleck.cn/products/s107.html

$$$$
