S119401 CUDC-101.cdx
 OpenBabel08302521453D

 58 60  0  0  0  0  0  0  0  0999 V2000
    0.0027    1.0035   -0.1255 C   0  0  0  0  0  0  0  0  0  0  0  0
    0.1416   -0.3517   -0.4239 C   0  0  0  0  0  0  0  0  0  0  0  0
   -0.9090   -1.1836   -0.4194 N   0  0  0  0  0  0  0  0  0  0  0  0
   -2.0993   -0.6522   -0.1020 C   0  0  0  0  0  0  0  0  0  0  0  0
   -2.3535    0.6400    0.1257 N   0  0  0  0  0  0  0  0  0  0  0  0
   -1.3002    1.4698    0.0781 C   0  0  0  0  0  0  0  0  0  0  0  0
    1.1395    1.8183    0.0316 C   0  0  0  0  0  0  0  0  0  0  0  0
    2.4206    1.2934   -0.0842 C   0  0  0  0  0  0  0  0  0  0  0  0
    2.5590    0.0042   -0.6082 C   0  0  0  0  0  0  0  0  0  0  0  0
    1.4204   -0.8141   -0.7254 C   0  0  0  0  0  0  0  0  0  0  0  0
   -1.4984    2.8721    0.1791 N   0  0  0  0  0  0  0  0  0  0  0  0
   -2.5660    3.5372    0.8078 C   0  0  0  0  0  0  0  0  0  0  0  0
   -2.9800    4.7881    0.3313 C   0  0  0  0  0  0  0  0  0  0  0  0
   -4.0063    5.4854    0.9750 C   0  0  0  0  0  0  0  0  0  0  0  0
   -4.6028    4.9571    2.1202 C   0  0  0  0  0  0  0  0  0  0  0  0
   -4.1650    3.7327    2.6261 C   0  0  0  0  0  0  0  0  0  0  0  0
   -3.1512    3.0319    1.9746 C   0  0  0  0  0  0  0  0  0  0  0  0
   -4.4564    6.7371    0.4476 C   0  0  0  0  0  0  0  0  0  0  0  0
   -4.8426    7.7810   -0.0030 C   0  0  0  0  0  0  0  0  0  0  0  0
    3.7469   -0.6076   -0.9129 O   0  0  0  0  0  0  0  0  0  0  0  0
    4.5378    0.1084   -1.8627 C   0  0  0  0  0  0  0  0  0  0  0  0
    3.4973    2.0294    0.3436 O   0  0  0  0  0  0  0  0  0  0  0  0
    3.3175    2.6539    1.6525 C   0  0  0  0  0  0  0  0  0  0  0  0
    3.3457    4.1846    1.5140 C   0  0  0  0  0  0  0  0  0  0  0  0
    3.2962    5.0218    2.8123 C   0  0  0  0  0  0  0  0  0  0  0  0
    1.9081    5.2408    3.4411 C   0  0  0  0  0  0  0  0  0  0  0  0
    1.9058    6.2434    4.6244 C   0  0  0  0  0  0  0  0  0  0  0  0
    2.2195    7.6997    4.2462 C   0  0  0  0  0  0  0  0  0  0  0  0
    2.2603    8.6410    5.4468 C   0  0  0  0  0  0  0  0  0  0  0  0
    2.4823    9.9597    5.1111 N   0  0  0  0  0  0  0  0  0  0  0  0
    2.1385    8.2778    6.6116 O   0  0  0  0  0  0  0  0  0  0  0  0
    2.4837   10.8711    6.1909 O   0  0  0  0  0  0  0  0  0  0  0  0
   -2.9408   -1.3327   -0.0281 H   0  0  0  0  0  0  0  0  0  0  0  0
    1.0122    2.8507    0.3422 H   0  0  0  0  0  0  0  0  0  0  0  0
    1.5380   -1.8516   -1.0339 H   0  0  0  0  0  0  0  0  0  0  0  0
   -1.2359    3.2956   -0.7062 H   0  0  0  0  0  0  0  0  0  0  0  0
   -2.5209    5.2165   -0.5567 H   0  0  0  0  0  0  0  0  0  0  0  0
   -5.4026    5.4869    2.6238 H   0  0  0  0  0  0  0  0  0  0  0  0
   -4.6222    3.3171    3.5206 H   0  0  0  0  0  0  0  0  0  0  0  0
   -2.8096    2.0876    2.3902 H   0  0  0  0  0  0  0  0  0  0  0  0
   -5.1927    8.7045   -0.4016 H   0  0  0  0  0  0  0  0  0  0  0  0
    3.9638    0.3985   -2.7516 H   0  0  0  0  0  0  0  0  0  0  0  0
    5.0136    0.9787   -1.4055 H   0  0  0  0  0  0  0  0  0  0  0  0
    5.3372   -0.5627   -2.1991 H   0  0  0  0  0  0  0  0  0  0  0  0
    2.4122    2.3114    2.1698 H   0  0  0  0  0  0  0  0  0  0  0  0
    4.1643    2.3243    2.2649 H   0  0  0  0  0  0  0  0  0  0  0  0
    4.2872    4.4321    1.0057 H   0  0  0  0  0  0  0  0  0  0  0  0
    2.5576    4.5157    0.8288 H   0  0  0  0  0  0  0  0  0  0  0  0
    3.9753    4.5970    3.5602 H   0  0  0  0  0  0  0  0  0  0  0  0
    3.6987    6.0066    2.5500 H   0  0  0  0  0  0  0  0  0  0  0  0
    1.1977    5.5883    2.6820 H   0  0  0  0  0  0  0  0  0  0  0  0
    1.5315    4.2800    3.8131 H   0  0  0  0  0  0  0  0  0  0  0  0
    0.9122    6.2213    5.0932 H   0  0  0  0  0  0  0  0  0  0  0  0
    2.6097    5.9024    5.3935 H   0  0  0  0  0  0  0  0  0  0  0  0
    3.2026    7.7655    3.7705 H   0  0  0  0  0  0  0  0  0  0  0  0
    1.4679    8.0718    3.5405 H   0  0  0  0  0  0  0  0  0  0  0  0
    2.2264   10.3360    4.2061 H   0  0  0  0  0  0  0  0  0  0  0  0
    2.4065   10.2786    6.9715 H   0  0  0  0  0  0  0  0  0  0  0  0
  1  2  1  0  0  0  0
  1  7  1  0  0  0  0
  2  3  2  0  0  0  0
  3  4  1  0  0  0  0
  4  5  2  0  0  0  0
  4 33  1  0  0  0  0
  5  6  1  0  0  0  0
  6  1  2  0  0  0  0
  6 11  1  0  0  0  0
  7  8  2  0  0  0  0
  7 34  1  0  0  0  0
  8  9  1  0  0  0  0
  8 22  1  0  0  0  0
  9 10  2  0  0  0  0
  9 20  1  0  0  0  0
 10  2  1  0  0  0  0
 10 35  1  0  0  0  0
 11 12  1  0  0  0  0
 11 36  1  0  0  0  0
 12 13  2  0  0  0  0
 13 14  1  0  0  0  0
 13 37  1  0  0  0  0
 14 15  2  0  0  0  0
 14 18  1  0  0  0  0
 15 16  1  0  0  0  0
 15 38  1  0  0  0  0
 16 17  2  0  0  0  0
 16 39  1  0  0  0  0
 17 12  1  0  0  0  0
 17 40  1  0  0  0  0
 18 19  3  0  0  0  0
 19 41  1  0  0  0  0
 20 21  1  0  0  0  0
 21 42  1  0  0  0  0
 21 43  1  0  0  0  0
 21 44  1  0  0  0  0
 22 23  1  0  0  0  0
 23 24  1  0  0  0  0
 23 45  1  0  0  0  0
 23 46  1  0  0  0  0
 24 25  1  0  0  0  0
 24 47  1  0  0  0  0
 24 48  1  0  0  0  0
 25 26  1  0  0  0  0
 25 49  1  0  0  0  0
 25 50  1  0  0  0  0
 26 27  1  0  0  0  0
 26 51  1  0  0  0  0
 26 52  1  0  0  0  0
 27 28  1  0  0  0  0
 27 53  1  0  0  0  0
 27 54  1  0  0  0  0
 28 29  1  0  0  0  0
 28 55  1  0  0  0  0
 28 56  1  0  0  0  0
 29 30  1  0  0  0  0
 29 31  2  0  0  0  0
 30 32  1  0  0  0  0
 30 57  1  0  0  0  0
 32 58  1  0  0  0  0
M  END
>  <Mol_ID>
113

>  <Formula>
C24H26N4O4

>  <MolWeight>
434.48764

>  <Cat>
S1194

>  <Name>
CUDC-101

>  <Synonyms>
N/A

>  <Target>
EGFR,HDAC,HER2

>  <Form>
free base

>  <CAS>
1012054-59-9

>  <URL>
http://selleckchem.com/products/CUDC-101.html

$$$$
