S2597-Oseltamivir phosphate.cdx
 OpenBabel08302521393D

 58 57  0  0  0  0  0  0  0  0999 V2000
   -1.6863    1.9630   -1.3898 C   0  0  1  0  0  0  0  0  0  0  0  0
   -0.2596    2.6911   -1.6625 C   0  0  1  0  0  0  0  0  0  0  0  0
    0.9419    1.8846   -2.3799 C   0  0  2  0  0  0  0  0  0  0  0  0
    0.7070    0.4120   -2.8386 C   0  0  0  0  0  0  0  0  0  0  0  0
   -0.6810   -0.1308   -2.6035 C   0  0  0  0  0  0  0  0  0  0  0  0
   -1.7303    0.5996   -2.1320 C   0  0  0  0  0  0  0  0  0  0  0  0
   -0.8775   -1.6522   -2.5409 C   0  0  0  0  0  0  0  0  0  0  0  0
    0.2341   -2.3629   -2.1095 O   0  0  0  0  0  0  0  0  0  0  0  0
    0.1642   -3.8349   -2.1616 C   0  0  0  0  0  0  0  0  0  0  0  0
    0.0866   -4.5735   -0.8162 C   0  0  0  0  0  0  0  0  0  0  0  0
   -1.9563   -2.1727   -2.7189 O   0  0  0  0  0  0  0  0  0  0  0  0
    2.2906    2.1195   -1.7944 N   0  0  0  0  0  0  0  0  0  0  0  0
   -1.9706    1.9277    0.1383 O   0  0  0  0  0  0  0  0  0  0  0  0
   -3.2050    1.3851    0.8037 C   0  0  0  0  0  0  0  0  0  0  0  0
   -3.3541   -0.1937    0.8566 C   0  0  0  0  0  0  0  0  0  0  0  0
   -3.2210    1.7786    2.3418 C   0  0  0  0  0  0  0  0  0  0  0  0
   -3.7017    3.1607    2.7463 C   0  0  0  0  0  0  0  0  0  0  0  0
   -4.5391   -0.8360    1.6109 C   0  0  0  0  0  0  0  0  0  0  0  0
   -0.4326    3.9123   -2.4853 N   0  0  0  0  0  0  0  0  0  0  0  0
   -0.7598    5.1367   -1.9726 C   0  0  0  0  0  0  0  0  0  0  0  0
   -0.7409    6.2196   -3.0067 C   0  0  0  0  0  0  0  0  0  0  0  0
   -1.0207    5.3490   -0.7952 O   0  0  0  0  0  0  0  0  0  0  0  0
    0.9226   -0.0192   -0.0603 P   0  0  0  0  0  0  0  0  0  0  0  0
    0.9010   -1.1091    1.0013 O   0  0  0  0  0  0  0  0  0  0  0  0
    0.8720    1.3746    0.7582 O   0  0  0  0  0  0  0  0  0  0  0  0
   -0.8074   -0.0192   -0.0603 O   0  0  0  0  0  0  0  0  0  0  0  0
    2.6526   -0.0192   -0.0603 O   0  0  0  0  0  0  0  0  0  0  0  0
   -2.4834    2.5982   -1.7796 H   0  0  0  0  0  0  0  0  0  0  0  0
    0.0744    3.0752   -0.6947 H   0  0  0  0  0  0  0  0  0  0  0  0
    1.1073    2.3874   -3.3423 H   0  0  0  0  0  0  0  0  0  0  0  0
    0.9194    0.3581   -3.9144 H   0  0  0  0  0  0  0  0  0  0  0  0
    1.4816   -0.2511   -2.4263 H   0  0  0  0  0  0  0  0  0  0  0  0
   -2.6801    0.0971   -1.9942 H   0  0  0  0  0  0  0  0  0  0  0  0
   -0.6656   -4.1772   -2.7949 H   0  0  0  0  0  0  0  0  0  0  0  0
    1.0846   -4.1770   -2.6531 H   0  0  0  0  0  0  0  0  0  0  0  0
   -0.8077   -4.3109   -0.2457 H   0  0  0  0  0  0  0  0  0  0  0  0
    0.0570   -5.6651   -0.9812 H   0  0  0  0  0  0  0  0  0  0  0  0
    0.9592   -4.3782   -0.1846 H   0  0  0  0  0  0  0  0  0  0  0  0
    2.2532    2.8002   -1.0278 H   0  0  0  0  0  0  0  0  0  0  0  0
    2.7111    1.2903   -1.3447 H   0  0  0  0  0  0  0  0  0  0  0  0
   -4.0712    1.8236    0.3043 H   0  0  0  0  0  0  0  0  0  0  0  0
   -3.3649   -0.6009   -0.1531 H   0  0  0  0  0  0  0  0  0  0  0  0
   -2.4891   -0.6085    1.3819 H   0  0  0  0  0  0  0  0  0  0  0  0
   -3.9244    1.1375    2.8842 H   0  0  0  0  0  0  0  0  0  0  0  0
   -2.2426    1.5834    2.7988 H   0  0  0  0  0  0  0  0  0  0  0  0
   -4.7093    3.3531    2.3655 H   0  0  0  0  0  0  0  0  0  0  0  0
   -3.7744    3.2070    3.8444 H   0  0  0  0  0  0  0  0  0  0  0  0
   -3.0187    3.9450    2.4236 H   0  0  0  0  0  0  0  0  0  0  0  0
   -5.5047   -0.4402    1.2935 H   0  0  0  0  0  0  0  0  0  0  0  0
   -4.5380   -1.9213    1.4397 H   0  0  0  0  0  0  0  0  0  0  0  0
   -4.4577   -0.7414    2.7016 H   0  0  0  0  0  0  0  0  0  0  0  0
   -0.1410    3.8854   -3.4535 H   0  0  0  0  0  0  0  0  0  0  0  0
   -1.7271    6.2702   -3.4769 H   0  0  0  0  0  0  0  0  0  0  0  0
   -0.5063    7.1923   -2.5479 H   0  0  0  0  0  0  0  0  0  0  0  0
    0.0171    6.0365   -3.7782 H   0  0  0  0  0  0  0  0  0  0  0  0
   -0.0794    1.5925    0.9115 H   0  0  0  0  0  0  0  0  0  0  0  0
   -0.9738   -0.8637    0.4115 H   0  0  0  0  0  0  0  0  0  0  0  0
    2.8715   -0.3486    0.8368 H   0  0  0  0  0  0  0  0  0  0  0  0
  1  2  1  0  0  0  0
  1 13  1  0  0  0  0
  1 28  1  6  0  0  0
  2  3  1  0  0  0  0
  2 29  1  1  0  0  0
  2 19  1  0  0  0  0
  3  4  1  0  0  0  0
  3 30  1  6  0  0  0
  3 12  1  0  0  0  0
  4  5  1  0  0  0  0
  4 31  1  0  0  0  0
  4 32  1  0  0  0  0
  5  6  2  0  0  0  0
  5  7  1  0  0  0  0
  6  1  1  0  0  0  0
  6 33  1  0  0  0  0
  7  8  1  0  0  0  0
  7 11  2  0  0  0  0
  8  9  1  0  0  0  0
  9 10  1  0  0  0  0
  9 34  1  0  0  0  0
  9 35  1  0  0  0  0
 10 36  1  0  0  0  0
 10 37  1  0  0  0  0
 10 38  1  0  0  0  0
 12 39  1  0  0  0  0
 12 40  1  0  0  0  0
 13 14  1  0  0  0  0
 14 15  1  0  0  0  0
 14 16  1  0  0  0  0
 14 41  1  0  0  0  0
 15 18  1  0  0  0  0
 15 42  1  0  0  0  0
 15 43  1  0  0  0  0
 16 17  1  0  0  0  0
 16 44  1  0  0  0  0
 16 45  1  0  0  0  0
 17 46  1  0  0  0  0
 17 47  1  0  0  0  0
 17 48  1  0  0  0  0
 18 49  1  0  0  0  0
 18 50  1  0  0  0  0
 18 51  1  0  0  0  0
 19 20  1  0  0  0  0
 19 52  1  0  0  0  0
 20 21  1  0  0  0  0
 20 22  2  0  0  0  0
 21 53  1  0  0  0  0
 21 54  1  0  0  0  0
 21 55  1  0  0  0  0
 23 24  2  0  0  0  0
 23 25  1  0  0  0  0
 23 26  1  0  0  0  0
 23 27  1  0  0  0  0
 25 56  1  0  0  0  0
 26 57  1  0  0  0  0
 27 58  1  0  0  0  0
M  END
>  <Mol_ID>
7995

>  <Formula>
C16H31N2O8P

>  <MolWeight>
410.399701

>  <Cat>
S2597

>  <Name>
Oseltamivir Phosphate

>  <Synonyms>
Tamiflu

>  <Target>
Influenza Virus,Neuraminidase

>  <Form>
Phosphate salt

>  <CAS>
204255-11-8

>  <URL>
http://selleckchem.com/products/oseltamivir-phosphate-Tamiflu.html

$$$$
