S3003 Dinoprostone.cdx
 OpenBabel08302519553D

 57 57  0  0  0  0  0  0  0  0999 V2000
    1.3977   -8.1821   -2.4250 C   0  0  2  0  0  0  0  0  0  0  0  0
    0.4129   -7.3279   -1.5973 C   0  0  2  0  0  0  0  0  0  0  0  0
    0.5470   -9.4039   -2.6952 C   0  0  0  0  0  0  0  0  0  0  0  0
    2.7037   -8.4713   -1.6762 C   0  0  0  0  0  0  0  0  0  0  0  0
   -1.0124   -7.8546   -1.9051 C   0  0  1  0  0  0  0  0  0  0  0  0
    0.5147   -5.8523   -1.9159 C   0  0  0  0  0  0  0  0  0  0  0  0
   -0.8976   -9.0480   -2.8367 C   0  0  0  0  0  0  0  0  0  0  0  0
    0.9598  -10.5393   -2.8805 O   0  0  0  0  0  0  0  0  0  0  0  0
    3.6761   -9.2729   -2.4988 C   0  0  0  0  0  0  0  0  0  0  0  0
   -1.6573   -8.2432   -0.6895 O   0  0  0  0  0  0  0  0  0  0  0  0
    0.7563   -4.9013   -0.9948 C   0  0  0  0  0  0  0  0  0  0  0  0
    4.9128   -8.9452   -2.9015 C   0  0  0  0  0  0  0  0  0  0  0  0
    0.7939   -3.4067   -1.2150 C   0  0  2  0  0  0  0  0  0  0  0  0
    5.6730   -7.6850   -2.6208 C   0  0  0  0  0  0  0  0  0  0  0  0
   -0.1778   -2.6188   -0.3134 C   0  0  0  0  0  0  0  0  0  0  0  0
    0.4838   -3.1149   -2.5767 O   0  0  0  0  0  0  0  0  0  0  0  0
    6.0241   -6.9159   -3.8947 C   0  0  0  0  0  0  0  0  0  0  0  0
    0.1198   -2.7628    1.1827 C   0  0  0  0  0  0  0  0  0  0  0  0
    4.7971   -6.4343   -4.6714 C   0  0  0  0  0  0  0  0  0  0  0  0
   -0.8330   -1.9392    2.0537 C   0  0  0  0  0  0  0  0  0  0  0  0
    5.2000   -5.6437   -5.8943 C   0  0  0  0  0  0  0  0  0  0  0  0
   -0.5338   -2.1588    3.5395 C   0  0  0  0  0  0  0  0  0  0  0  0
    4.1314   -5.2011   -6.5967 O   0  0  0  0  0  0  0  0  0  0  0  0
    6.3473   -5.4156   -6.2432 O   0  0  0  0  0  0  0  0  0  0  0  0
   -1.4696   -1.3615    4.4332 C   0  0  0  0  0  0  0  0  0  0  0  0
    1.6098   -7.7112   -3.3939 H   0  0  0  0  0  0  0  0  0  0  0  0
    0.6178   -7.4734   -0.5270 H   0  0  0  0  0  0  0  0  0  0  0  0
    3.1467   -7.5216   -1.3594 H   0  0  0  0  0  0  0  0  0  0  0  0
    2.4949   -9.0368   -0.7592 H   0  0  0  0  0  0  0  0  0  0  0  0
   -1.6571   -7.0934   -2.3575 H   0  0  0  0  0  0  0  0  0  0  0  0
    0.3401   -5.5637   -2.9510 H   0  0  0  0  0  0  0  0  0  0  0  0
   -1.5377   -9.8880   -2.5574 H   0  0  0  0  0  0  0  0  0  0  0  0
   -1.0632   -8.7597   -3.8797 H   0  0  0  0  0  0  0  0  0  0  0  0
    3.3283  -10.2658   -2.7903 H   0  0  0  0  0  0  0  0  0  0  0  0
   -1.1638   -8.9784   -0.2836 H   0  0  0  0  0  0  0  0  0  0  0  0
    0.9508   -5.2185    0.0281 H   0  0  0  0  0  0  0  0  0  0  0  0
    5.4520   -9.6860   -3.4957 H   0  0  0  0  0  0  0  0  0  0  0  0
    1.8160   -3.0540   -1.0374 H   0  0  0  0  0  0  0  0  0  0  0  0
    5.1358   -7.0234   -1.9311 H   0  0  0  0  0  0  0  0  0  0  0  0
    6.6035   -7.9660   -2.1140 H   0  0  0  0  0  0  0  0  0  0  0  0
   -0.1307   -1.5570   -0.5935 H   0  0  0  0  0  0  0  0  0  0  0  0
   -1.2110   -2.9273   -0.5207 H   0  0  0  0  0  0  0  0  0  0  0  0
   -0.4433   -3.3742   -2.7145 H   0  0  0  0  0  0  0  0  0  0  0  0
    6.6405   -6.0529   -3.6165 H   0  0  0  0  0  0  0  0  0  0  0  0
    6.6485   -7.5436   -4.5444 H   0  0  0  0  0  0  0  0  0  0  0  0
    0.0333   -3.8135    1.4802 H   0  0  0  0  0  0  0  0  0  0  0  0
    1.1532   -2.4529    1.3791 H   0  0  0  0  0  0  0  0  0  0  0  0
    4.1991   -7.2877   -5.0094 H   0  0  0  0  0  0  0  0  0  0  0  0
    4.1802   -5.7940   -4.0313 H   0  0  0  0  0  0  0  0  0  0  0  0
   -0.7361   -0.8748    1.8088 H   0  0  0  0  0  0  0  0  0  0  0  0
   -1.8696   -2.2288    1.8429 H   0  0  0  0  0  0  0  0  0  0  0  0
   -0.6307   -3.2235    3.7832 H   0  0  0  0  0  0  0  0  0  0  0  0
    0.5016   -1.8715    3.7570 H   0  0  0  0  0  0  0  0  0  0  0  0
    3.2741   -5.4466   -6.2019 H   0  0  0  0  0  0  0  0  0  0  0  0
   -2.5137   -1.6371    4.2550 H   0  0  0  0  0  0  0  0  0  0  0  0
   -1.2431   -1.5569    5.4867 H   0  0  0  0  0  0  0  0  0  0  0  0
   -1.3604   -0.2870    4.2569 H   0  0  0  0  0  0  0  0  0  0  0  0
  1  2  1  0  0  0  0
  1  3  1  0  0  0  0
  1 26  1  6  0  0  0
  1  4  1  0  0  0  0
  2  5  1  0  0  0  0
  2 27  1  1  0  0  0
  2  6  1  0  0  0  0
  3  7  1  0  0  0  0
  3  8  2  0  0  0  0
  4  9  1  0  0  0  0
  4 28  1  0  0  0  0
  4 29  1  0  0  0  0
  5 10  1  0  0  0  0
  5  7  1  0  0  0  0
  5 30  1  6  0  0  0
  6 11  2  0  0  0  0
  6 31  1  0  0  0  0
  7 32  1  0  0  0  0
  7 33  1  0  0  0  0
  9 12  2  0  0  0  0
  9 34  1  0  0  0  0
 10 35  1  0  0  0  0
 11 36  1  0  0  0  0
 12 14  1  0  0  0  0
 12 37  1  0  0  0  0
 13 16  1  0  0  0  0
 13 38  1  1  0  0  0
 13 15  1  0  0  0  0
 13 11  1  0  0  0  0
 14 17  1  0  0  0  0
 14 39  1  0  0  0  0
 14 40  1  0  0  0  0
 15 18  1  0  0  0  0
 15 41  1  0  0  0  0
 15 42  1  0  0  0  0
 16 43  1  0  0  0  0
 17 19  1  0  0  0  0
 17 44  1  0  0  0  0
 17 45  1  0  0  0  0
 18 20  1  0  0  0  0
 18 46  1  0  0  0  0
 18 47  1  0  0  0  0
 19 21  1  0  0  0  0
 19 48  1  0  0  0  0
 19 49  1  0  0  0  0
 20 22  1  0  0  0  0
 20 50  1  0  0  0  0
 20 51  1  0  0  0  0
 21 23  1  0  0  0  0
 21 24  2  0  0  0  0
 22 25  1  0  0  0  0
 22 52  1  0  0  0  0
 22 53  1  0  0  0  0
 23 54  1  0  0  0  0
 25 55  1  0  0  0  0
 25 56  1  0  0  0  0
 25 57  1  0  0  0  0
M  END
>  <Mol_ID>
2151

>  <Formula>
C20H32O5

>  <MolWeight>
352.46508

>  <Cat>
S3003

>  <Name>
Prostaglandin E2 (PGE2)

>  <Synonyms>
Dinoprostone,Prepidil

>  <Target>
PGES,Prostaglandin Receptor

>  <Form>
free base

>  <CAS>
363-24-6

>  <URL>
http://selleckchem.com/products/prostaglandin-e2-cervidil.html

$$$$
