S31-201.cdx
 OpenBabel08302521383D

 40 41  0  0  0  0  0  0  0  0999 V2000
   -5.2007   -3.3095    2.9411 C   0  0  0  0  0  0  0  0  0  0  0  0
   -5.9090   -2.4768    2.0639 C   0  0  0  0  0  0  0  0  0  0  0  0
   -5.3582   -2.1135    0.8339 C   0  0  0  0  0  0  0  0  0  0  0  0
   -4.0924   -2.5891    0.4839 C   0  0  0  0  0  0  0  0  0  0  0  0
   -3.3735   -3.4195    1.3463 C   0  0  0  0  0  0  0  0  0  0  0  0
   -3.9317   -3.7791    2.5727 C   0  0  0  0  0  0  0  0  0  0  0  0
   -5.7838   -3.7042    4.2667 C   0  0  0  0  0  0  0  0  0  0  0  0
   -3.3615   -2.0948   -1.0510 S   0  0  0  0  0  0  0  0  0  0  0  0
   -3.9150   -0.5837   -1.2992 O   0  0  0  0  0  0  0  0  0  0  0  0
   -1.9312   -1.9797   -0.8403 O   0  0  0  0  0  0  0  0  0  0  0  0
   -3.9100   -2.9574   -2.0771 O   0  0  0  0  0  0  0  0  0  0  0  0
   -3.5562    0.0087   -2.5288 C   0  0  0  0  0  0  0  0  0  0  0  0
   -4.2511    1.3490   -2.7107 C   0  0  0  0  0  0  0  0  0  0  0  0
   -3.9364    2.2936   -1.7433 N   0  0  0  0  0  0  0  0  0  0  0  0
   -4.9749    1.5337   -3.6883 O   0  0  0  0  0  0  0  0  0  0  0  0
   -4.4649    3.6047   -1.6756 C   0  0  0  0  0  0  0  0  0  0  0  0
   -5.6119    3.9914   -2.3798 C   0  0  0  0  0  0  0  0  0  0  0  0
   -6.0853    5.3028   -2.3193 C   0  0  0  0  0  0  0  0  0  0  0  0
   -5.4221    6.2554   -1.5467 C   0  0  0  0  0  0  0  0  0  0  0  0
   -4.3062    5.8667   -0.8003 C   0  0  0  0  0  0  0  0  0  0  0  0
   -3.8253    4.5515   -0.8631 C   0  0  0  0  0  0  0  0  0  0  0  0
   -3.6246    6.7336    0.0121 O   0  0  0  0  0  0  0  0  0  0  0  0
   -5.9604    7.6353   -1.5585 C   0  0  0  0  0  0  0  0  0  0  0  0
   -5.0068    8.5845   -1.4574 O   0  0  0  0  0  0  0  0  0  0  0  0
   -7.1493    7.8831   -1.6567 O   0  0  0  0  0  0  0  0  0  0  0  0
   -6.8962   -2.1067    2.3339 H   0  0  0  0  0  0  0  0  0  0  0  0
   -5.9232   -1.4726    0.1617 H   0  0  0  0  0  0  0  0  0  0  0  0
   -2.3870   -3.7879    1.0726 H   0  0  0  0  0  0  0  0  0  0  0  0
   -3.3722   -4.4279    3.2442 H   0  0  0  0  0  0  0  0  0  0  0  0
   -5.8817   -4.7928    4.3259 H   0  0  0  0  0  0  0  0  0  0  0  0
   -5.1396   -3.3548    5.0800 H   0  0  0  0  0  0  0  0  0  0  0  0
   -6.7775   -3.2686    4.4141 H   0  0  0  0  0  0  0  0  0  0  0  0
   -2.4731    0.1598   -2.5811 H   0  0  0  0  0  0  0  0  0  0  0  0
   -3.8630   -0.6367   -3.3599 H   0  0  0  0  0  0  0  0  0  0  0  0
   -3.1933    2.0611   -1.0922 H   0  0  0  0  0  0  0  0  0  0  0  0
   -6.1762    3.2846   -2.9802 H   0  0  0  0  0  0  0  0  0  0  0  0
   -6.9751    5.5726   -2.8876 H   0  0  0  0  0  0  0  0  0  0  0  0
   -2.9465    4.2871   -0.2826 H   0  0  0  0  0  0  0  0  0  0  0  0
   -4.2691    7.3272    0.4472 H   0  0  0  0  0  0  0  0  0  0  0  0
   -4.0933    8.2508   -1.5791 H   0  0  0  0  0  0  0  0  0  0  0  0
  1  2  2  0  0  0  0
  1  7  1  0  0  0  0
  2  3  1  0  0  0  0
  2 26  1  0  0  0  0
  3  4  2  0  0  0  0
  3 27  1  0  0  0  0
  4  5  1  0  0  0  0
  4  8  1  0  0  0  0
  5  6  2  0  0  0  0
  5 28  1  0  0  0  0
  6  1  1  0  0  0  0
  6 29  1  0  0  0  0
  7 30  1  0  0  0  0
  7 31  1  0  0  0  0
  7 32  1  0  0  0  0
  8  9  1  0  0  0  0
  8 10  2  0  0  0  0
  8 11  2  0  0  0  0
  9 12  1  0  0  0  0
 12 13  1  0  0  0  0
 12 33  1  0  0  0  0
 12 34  1  0  0  0  0
 13 14  1  0  0  0  0
 13 15  2  0  0  0  0
 14 16  1  0  0  0  0
 14 35  1  0  0  0  0
 16 17  2  0  0  0  0
 17 18  1  0  0  0  0
 17 36  1  0  0  0  0
 18 19  2  0  0  0  0
 18 37  1  0  0  0  0
 19 20  1  0  0  0  0
 19 23  1  0  0  0  0
 20 21  2  0  0  0  0
 20 22  1  0  0  0  0
 21 16  1  0  0  0  0
 21 38  1  0  0  0  0
 22 39  1  0  0  0  0
 23 24  1  0  0  0  0
 23 25  2  0  0  0  0
 24 40  1  0  0  0  0
M  END
>  <Mol_ID>
91

>  <Formula>
C16H15NO7S

>  <MolWeight>
365.3578

>  <Cat>
S1155

>  <Name>
S3I-201

>  <Synonyms>
NSC 74859

>  <Target>
STAT

>  <Form>
free base

>  <CAS>
501919-59-1

>  <URL>
http://selleckchem.com/products/S31-201.html

$$$$
