S3120 Doxepin hydrochloride.cdx
 OpenBabel08302519503D

 42 44  0  0  0  0  0  0  0  0999 V2000
   -3.7520    0.1777    0.8486 C   0  0  0  0  0  0  0  0  0  0  0  0
   -3.4441   -1.1815    0.8204 C   0  0  0  0  0  0  0  0  0  0  0  0
   -2.2464   -1.6130    0.2501 C   0  0  0  0  0  0  0  0  0  0  0  0
   -1.3583   -0.6846   -0.3067 C   0  0  0  0  0  0  0  0  0  0  0  0
   -1.6567    0.6851   -0.2617 C   0  0  0  0  0  0  0  0  0  0  0  0
   -2.8601    1.1104    0.3162 C   0  0  0  0  0  0  0  0  0  0  0  0
   -0.0696   -1.0996   -0.8983 C   0  0  0  0  0  0  0  0  0  0  0  0
    1.2258   -0.5808   -0.3612 C   0  0  0  0  0  0  0  0  0  0  0  0
    1.4038    0.7533    0.0652 C   0  0  0  0  0  0  0  0  0  0  0  0
    0.4859    1.7749    0.0504 O   0  0  0  0  0  0  0  0  0  0  0  0
   -0.6492    1.6613   -0.8066 C   0  0  0  0  0  0  0  0  0  0  0  0
    2.3041   -1.4761   -0.1994 C   0  0  0  0  0  0  0  0  0  0  0  0
    3.5260   -1.0623    0.3392 C   0  0  0  0  0  0  0  0  0  0  0  0
    3.6889    0.2542    0.7488 C   0  0  0  0  0  0  0  0  0  0  0  0
    2.6325    1.1505    0.6196 C   0  0  0  0  0  0  0  0  0  0  0  0
   -0.0510   -1.8400   -2.0321 C   0  0  0  0  0  0  0  0  0  0  0  0
   -1.2174   -2.3339   -2.8640 C   0  0  0  0  0  0  0  0  0  0  0  0
   -1.0652   -1.8648   -4.3262 C   0  0  0  0  0  0  0  0  0  0  0  0
   -2.1422   -2.2837   -5.2462 N   0  0  0  0  0  0  0  0  0  0  0  0
   -1.8777   -1.7422   -6.5836 C   0  0  0  0  0  0  0  0  0  0  0  0
   -2.2797   -3.7386   -5.3172 C   0  0  0  0  0  0  0  0  0  0  0  0
   -4.6834    0.5127    1.2973 H   0  0  0  0  0  0  0  0  0  0  0  0
   -4.1316   -1.9051    1.2490 H   0  0  0  0  0  0  0  0  0  0  0  0
   -2.0051   -2.6728    0.2452 H   0  0  0  0  0  0  0  0  0  0  0  0
   -3.1043    2.1688    0.3647 H   0  0  0  0  0  0  0  0  0  0  0  0
   -0.3494    1.4224   -1.8354 H   0  0  0  0  0  0  0  0  0  0  0  0
   -1.1000    2.6595   -0.8599 H   0  0  0  0  0  0  0  0  0  0  0  0
    2.1938   -2.5226   -0.4757 H   0  0  0  0  0  0  0  0  0  0  0  0
    4.3397   -1.7733    0.4503 H   0  0  0  0  0  0  0  0  0  0  0  0
    4.6329    0.5832    1.1780 H   0  0  0  0  0  0  0  0  0  0  0  0
    2.7585    2.1786    0.9576 H   0  0  0  0  0  0  0  0  0  0  0  0
    0.9143   -2.0984   -2.4666 H   0  0  0  0  0  0  0  0  0  0  0  0
   -1.2187   -3.4284   -2.8115 H   0  0  0  0  0  0  0  0  0  0  0  0
   -2.1822   -1.9881   -2.4819 H   0  0  0  0  0  0  0  0  0  0  0  0
   -1.0350   -0.7665   -4.3163 H   0  0  0  0  0  0  0  0  0  0  0  0
   -0.0942   -2.2032   -4.7134 H   0  0  0  0  0  0  0  0  0  0  0  0
   -0.9406   -2.1245   -7.0053 H   0  0  0  0  0  0  0  0  0  0  0  0
   -2.6923   -1.9941   -7.2720 H   0  0  0  0  0  0  0  0  0  0  0  0
   -1.8233   -0.6484   -6.5542 H   0  0  0  0  0  0  0  0  0  0  0  0
   -1.3152   -4.2423   -5.4465 H   0  0  0  0  0  0  0  0  0  0  0  0
   -2.7607   -4.1215   -4.4112 H   0  0  0  0  0  0  0  0  0  0  0  0
   -2.9287   -4.0344   -6.1504 H   0  0  0  0  0  0  0  0  0  0  0  0
  1  2  2  0  0  0  0
  1 22  1  0  0  0  0
  2  3  1  0  0  0  0
  2 23  1  0  0  0  0
  3  4  2  0  0  0  0
  3 24  1  0  0  0  0
  4  5  1  0  0  0  0
  4  7  1  0  0  0  0
  5  6  2  0  0  0  0
  6  1  1  0  0  0  0
  6 25  1  0  0  0  0
  7  8  1  0  0  0  0
  7 16  2  0  0  0  0
  8  9  2  0  0  0  0
  8 12  1  0  0  0  0
  9 10  1  0  0  0  0
 10 11  1  0  0  0  0
 11  5  1  0  0  0  0
 11 26  1  0  0  0  0
 11 27  1  0  0  0  0
 12 13  2  0  0  0  0
 12 28  1  0  0  0  0
 13 14  1  0  0  0  0
 13 29  1  0  0  0  0
 14 15  2  0  0  0  0
 14 30  1  0  0  0  0
 15  9  1  0  0  0  0
 15 31  1  0  0  0  0
 16 17  1  0  0  0  0
 16 32  1  0  0  0  0
 17 18  1  0  0  0  0
 17 33  1  0  0  0  0
 17 34  1  0  0  0  0
 18 19  1  0  0  0  0
 18 35  1  0  0  0  0
 18 36  1  0  0  0  0
 19 20  1  0  0  0  0
 19 21  1  0  0  0  0
 20 37  1  0  0  0  0
 20 38  1  0  0  0  0
 20 39  1  0  0  0  0
 21 40  1  0  0  0  0
 21 41  1  0  0  0  0
 21 42  1  0  0  0  0
M  END
>  <Mol_ID>
1683

>  <Formula>
C19H22ClNO

>  <MolWeight>
315.83708

>  <Cat>
S3120

>  <Name>
Doxepin HCl

>  <Synonyms>
N/A

>  <Target>
Histamine Receptor

>  <Form>
hydrochloride

>  <CAS>
1229-29-4

>  <URL>
http://selleckchem.com/products/doxepin-hydrochloride-sinequan.html

$$$$
