S3625 Tyramine.cdx
 OpenBabel08302519503D

 21 21  0  0  0  0  0  0  0  0999 V2000
   -1.8391    0.0880   -0.0731 C   0  0  0  0  0  0  0  0  0  0  0  0
   -1.1905   -1.1495    0.0516 C   0  0  0  0  0  0  0  0  0  0  0  0
   -1.0664    1.2528   -0.1788 C   0  0  0  0  0  0  0  0  0  0  0  0
   -3.3477    0.1668   -0.0672 C   0  0  0  0  0  0  0  0  0  0  0  0
    0.2048   -1.2231    0.0626 C   0  0  0  0  0  0  0  0  0  0  0  0
    0.3278    1.1789   -0.1669 C   0  0  0  0  0  0  0  0  0  0  0  0
   -3.9045    0.3264    1.3516 C   0  0  0  0  0  0  0  0  0  0  0  0
    0.9520   -0.0550   -0.0467 C   0  0  0  0  0  0  0  0  0  0  0  0
   -5.3642    0.4209    1.3398 N   0  0  0  0  0  0  0  0  0  0  0  0
    2.3154   -0.0802   -0.0373 O   0  0  0  0  0  0  0  0  0  0  0  0
   -1.7721   -2.0650    0.1379 H   0  0  0  0  0  0  0  0  0  0  0  0
   -1.5448    2.2248   -0.2742 H   0  0  0  0  0  0  0  0  0  0  0  0
   -3.6673    1.0058   -0.6991 H   0  0  0  0  0  0  0  0  0  0  0  0
   -3.7592   -0.7366   -0.5360 H   0  0  0  0  0  0  0  0  0  0  0  0
    0.6841   -2.1924    0.1545 H   0  0  0  0  0  0  0  0  0  0  0  0
    0.9236    2.0831   -0.2525 H   0  0  0  0  0  0  0  0  0  0  0  0
   -3.6130   -0.5316    1.9680 H   0  0  0  0  0  0  0  0  0  0  0  0
   -3.4916    1.2229    1.8287 H   0  0  0  0  0  0  0  0  0  0  0  0
   -5.7024    0.4893    2.2992 H   0  0  0  0  0  0  0  0  0  0  0  0
   -5.6451    1.2871    0.8806 H   0  0  0  0  0  0  0  0  0  0  0  0
    2.6060   -1.0023    0.0541 H   0  0  0  0  0  0  0  0  0  0  0  0
  1  2  2  0  0  0  0
  1  3  1  0  0  0  0
  1  4  1  0  0  0  0
  2  5  1  0  0  0  0
  2 11  1  0  0  0  0
  3  6  2  0  0  0  0
  3 12  1  0  0  0  0
  4  7  1  0  0  0  0
  4 13  1  0  0  0  0
  4 14  1  0  0  0  0
  5  8  2  0  0  0  0
  5 15  1  0  0  0  0
  6  8  1  0  0  0  0
  6 16  1  0  0  0  0
  7  9  1  0  0  0  0
  7 17  1  0  0  0  0
  7 18  1  0  0  0  0
  8 10  1  0  0  0  0
  9 19  1  0  0  0  0
  9 20  1  0  0  0  0
 10 21  1  0  0  0  0
M  END
>  <Mol_ID>
1666

>  <Formula>
C8H11NO

>  <MolWeight>
137.17904

>  <Cat>
S3625

>  <Name>
Tyramine

>  <Synonyms>
4-hydroxyphenethylamine, para-tyramine, mydrial, uteramin

>  <Target>
TAAR

>  <Form>
free base

>  <CAS>
51-67-2

>  <URL>
http://selleckchem.com/products/tyramine.html

$$$$
