S3627 Tryptamine.cdx
 OpenBabel08302519503D

 24 25  0  0  0  0  0  0  0  0999 V2000
    1.2468    0.0222   -0.1524 N   0  0  0  0  0  0  0  0  0  0  0  0
    0.6355   -0.6004    1.0262 C   0  0  0  0  0  0  0  0  0  0  0  0
    0.9462    0.1294    2.3432 C   0  0  0  0  0  0  0  0  0  0  0  0
    0.4832    1.5555    2.3567 C   0  0  0  0  0  0  0  0  0  0  0  0
   -0.8260    1.9916    2.2816 C   0  0  0  0  0  0  0  0  0  0  0  0
   -0.8261    3.3594    2.2801 N   0  0  0  0  0  0  0  0  0  0  0  0
    0.4612    3.8350    2.3620 C   0  0  0  0  0  0  0  0  0  0  0  0
    0.9351    5.1523    2.3818 C   0  0  0  0  0  0  0  0  0  0  0  0
    2.3168    5.3435    2.4752 C   0  0  0  0  0  0  0  0  0  0  0  0
    3.1866    4.2592    2.5488 C   0  0  0  0  0  0  0  0  0  0  0  0
    2.6957    2.9485    2.5249 C   0  0  0  0  0  0  0  0  0  0  0  0
    1.3061    2.7266    2.4261 C   0  0  0  0  0  0  0  0  0  0  0  0
    0.8965    0.9818   -0.2217 H   0  0  0  0  0  0  0  0  0  0  0  0
    2.2480    0.1254    0.0041 H   0  0  0  0  0  0  0  0  0  0  0  0
   -0.4481   -0.6518    0.8695 H   0  0  0  0  0  0  0  0  0  0  0  0
    0.9952   -1.6327    1.0967 H   0  0  0  0  0  0  0  0  0  0  0  0
    0.4632   -0.4065    3.1699 H   0  0  0  0  0  0  0  0  0  0  0  0
    2.0251    0.0808    2.5347 H   0  0  0  0  0  0  0  0  0  0  0  0
   -1.7556    1.4420    2.2097 H   0  0  0  0  0  0  0  0  0  0  0  0
   -1.6490    3.9428    2.2180 H   0  0  0  0  0  0  0  0  0  0  0  0
    0.2599    5.9997    2.3236 H   0  0  0  0  0  0  0  0  0  0  0  0
    2.7166    6.3548    2.4900 H   0  0  0  0  0  0  0  0  0  0  0  0
    4.2577    4.4295    2.6247 H   0  0  0  0  0  0  0  0  0  0  0  0
    3.3862    2.1128    2.5837 H   0  0  0  0  0  0  0  0  0  0  0  0
  1  2  1  0  0  0  0
  1 13  1  0  0  0  0
  1 14  1  0  0  0  0
  2  3  1  0  0  0  0
  2 15  1  0  0  0  0
  2 16  1  0  0  0  0
  3  4  1  0  0  0  0
  3 17  1  0  0  0  0
  3 18  1  0  0  0  0
  4  5  2  0  0  0  0
  4 12  1  0  0  0  0
  5  6  1  0  0  0  0
  5 19  1  0  0  0  0
  6  7  1  0  0  0  0
  6 20  1  0  0  0  0
  7  8  1  0  0  0  0
  7 12  2  0  0  0  0
  8  9  2  0  0  0  0
  8 21  1  0  0  0  0
  9 10  1  0  0  0  0
  9 22  1  0  0  0  0
 10 11  2  0  0  0  0
 10 23  1  0  0  0  0
 11 12  1  0  0  0  0
 11 24  1  0  0  0  0
M  END
>  <Mol_ID>
1668

>  <Formula>
C10H12N2

>  <MolWeight>
160.21568

>  <Cat>
S3627

>  <Name>
Tryptamine

>  <Synonyms>
N/A

>  <Target>
TAAR

>  <Form>
free base

>  <CAS>
61-54-1

>  <URL>
http://selleckchem.com/products/tryptamine.html

$$$$
