S3630 Methyl Vanillate.cdx
 OpenBabel08302519503D

 23 23  0  0  0  0  0  0  0  0999 V2000
   -1.2437   -1.1172    0.0006 C   0  0  0  0  0  0  0  0  0  0  0  0
    0.1623   -1.1982    0.0088 C   0  0  0  0  0  0  0  0  0  0  0  0
   -1.9946   -2.4021   -0.0052 C   0  0  0  0  0  0  0  0  0  0  0  0
   -1.8698    0.1390   -0.0012 C   0  0  0  0  0  0  0  0  0  0  0  0
    0.9379   -0.0410    0.0149 C   0  0  0  0  0  0  0  0  0  0  0  0
   -3.3362   -2.2083   -0.0091 O   0  0  0  0  0  0  0  0  0  0  0  0
   -1.4371   -3.4898   -0.0052 O   0  0  0  0  0  0  0  0  0  0  0  0
   -1.0951    1.3010    0.0058 C   0  0  0  0  0  0  0  0  0  0  0  0
    0.2927    1.1990    0.0135 C   0  0  0  0  0  0  0  0  0  0  0  0
    2.3077    0.0120    0.0217 O   0  0  0  0  0  0  0  0  0  0  0  0
   -4.0782   -3.4324   -0.0130 C   0  0  0  0  0  0  0  0  0  0  0  0
    1.0282    2.3533    0.0208 O   0  0  0  0  0  0  0  0  0  0  0  0
    2.9914   -1.2371    0.0208 C   0  0  0  0  0  0  0  0  0  0  0  0
    0.6216   -2.1824    0.0103 H   0  0  0  0  0  0  0  0  0  0  0  0
   -2.9533    0.2248   -0.0078 H   0  0  0  0  0  0  0  0  0  0  0  0
   -1.5650    2.2789    0.0046 H   0  0  0  0  0  0  0  0  0  0  0  0
   -3.8571   -4.0135   -0.9145 H   0  0  0  0  0  0  0  0  0  0  0  0
   -3.8554   -4.0197    0.8851 H   0  0  0  0  0  0  0  0  0  0  0  0
   -5.1444   -3.1909   -0.0103 H   0  0  0  0  0  0  0  0  0  0  0  0
    1.9614    2.0614    0.0262 H   0  0  0  0  0  0  0  0  0  0  0  0
    2.7646   -1.8101    0.9261 H   0  0  0  0  0  0  0  0  0  0  0  0
    2.7603   -1.8130   -0.8816 H   0  0  0  0  0  0  0  0  0  0  0  0
    4.0656   -1.0303    0.0175 H   0  0  0  0  0  0  0  0  0  0  0  0
  1  2  2  0  0  0  0
  1  3  1  0  0  0  0
  1  4  1  0  0  0  0
  2  5  1  0  0  0  0
  2 14  1  0  0  0  0
  3  6  1  0  0  0  0
  3  7  2  0  0  0  0
  4  8  2  0  0  0  0
  4 15  1  0  0  0  0
  5  9  2  0  0  0  0
  5 10  1  0  0  0  0
  6 11  1  0  0  0  0
  8  9  1  0  0  0  0
  8 16  1  0  0  0  0
  9 12  1  0  0  0  0
 10 13  1  0  0  0  0
 11 17  1  0  0  0  0
 11 18  1  0  0  0  0
 11 19  1  0  0  0  0
 12 20  1  0  0  0  0
 13 21  1  0  0  0  0
 13 22  1  0  0  0  0
 13 23  1  0  0  0  0
M  END
>  <Mol_ID>
1662

>  <Formula>
C9H10O4

>  <MolWeight>
182.1733

>  <Cat>
S3630

>  <Name>
Methyl Vanillate

>  <Synonyms>
N/A

>  <Target>
Wnt/beta-catenin

>  <Form>
free base

>  <CAS>
3943-74-6

>  <URL>
http://selleckchem.com/products/methyl-vanillate.html

$$$$
