S3635 Medroxyprogesterone.cdx
 OpenBabel08302520002D

 57 60  0  0  0  0  0  0  0  0999 V2000
    6.0716    3.4967    0.0000 C   0  0  1  0  0  0  0  0  0  0  0  0
    7.2802    4.2001    0.0000 C   0  0  1  0  0  0  0  0  0  0  0  0
    4.8549    4.2001    0.0000 C   0  0  1  0  0  0  0  0  0  0  0  0
    6.0716    2.0942    0.0000 C   0  0  0  0  0  0  0  0  0  0  0  0
    7.2681    5.5988    0.0000 C   0  0  1  0  0  0  0  0  0  0  0  0
    8.6143    3.7757    0.0000 C   0  0  0  0  0  0  0  0  0  0  0  0
    3.6460    3.4967    0.0000 C   0  0  2  0  0  0  0  0  0  0  0  0
    4.8549    5.5988    0.0000 C   0  0  0  0  0  0  0  0  0  0  0  0
    4.8670    1.3908    0.0000 C   0  0  1  0  0  0  0  0  0  0  0  0
    8.6021    6.0192    0.0000 C   0  0  2  0  0  0  0  0  0  0  0  0
    6.0596    6.2981    0.0000 C   0  0  0  0  0  0  0  0  0  0  0  0
    9.4227    4.9197    0.0000 C   0  0  0  0  0  0  0  0  0  0  0  0
    3.6582    2.0942    0.0000 C   0  0  0  0  0  0  0  0  0  0  0  0
    2.4336    4.2001    0.0000 C   0  0  0  0  0  0  0  0  0  0  0  0
    3.6582    4.8955    0.0000 C   0  0  0  0  0  0  0  0  0  0  0  0
    4.8670    0.0000    0.0000 C   0  0  0  0  0  0  0  0  0  0  0  0
    8.0806    7.3290    0.0000 C   0  0  0  0  0  0  0  0  0  0  0  0
    9.9077    6.5406    0.0000 O   0  0  0  0  0  0  0  0  0  0  0  0
    2.4456    1.3908    0.0000 C   0  0  0  0  0  0  0  0  0  0  0  0
    1.2086    3.4967    0.0000 C   0  0  0  0  0  0  0  0  0  0  0  0
    8.9375    8.4164    0.0000 C   0  0  0  0  0  0  0  0  0  0  0  0
    6.6981    7.5311    0.0000 O   0  0  0  0  0  0  0  0  0  0  0  0
    1.2247    2.0942    0.0000 C   0  0  0  0  0  0  0  0  0  0  0  0
    0.0000    1.3786    0.0000 O   0  0  0  0  0  0  0  0  0  0  0  0
    6.9058    6.9511    0.0000 C   0  0  0  0  0  0  0  0  0  0  0  0
    6.9992    2.9633    0.0000 H   0  0  0  0  0  0  0  0  0  0  0  0
    7.3972    3.1365    0.0000 H   0  0  0  0  0  0  0  0  0  0  0  0
    5.7817    4.7348    0.0000 H   0  0  0  0  0  0  0  0  0  0  0  0
    6.9996    1.5615    0.0000 H   0  0  0  0  0  0  0  0  0  0  0  0
    6.0755    1.0242    0.0000 H   0  0  0  0  0  0  0  0  0  0  0  0
    8.9548    2.7613    0.0000 H   0  0  0  0  0  0  0  0  0  0  0  0
    9.6730    3.6204    0.0000 H   0  0  0  0  0  0  0  0  0  0  0  0
    3.9276    6.1327    0.0000 H   0  0  0  0  0  0  0  0  0  0  0  0
    4.8530    6.6688    0.0000 H   0  0  0  0  0  0  0  0  0  0  0  0
    5.7950    0.8581    0.0000 H   0  0  0  0  0  0  0  0  0  0  0  0
    6.0589    7.3681    0.0000 H   0  0  0  0  0  0  0  0  0  0  0  0
    5.1321    6.8317    0.0000 H   0  0  0  0  0  0  0  0  0  0  0  0
   10.4926    4.9336    0.0000 H   0  0  0  0  0  0  0  0  0  0  0  0
    9.8961    5.8793    0.0000 H   0  0  0  0  0  0  0  0  0  0  0  0
    2.4360    5.2701    0.0000 H   0  0  0  0  0  0  0  0  0  0  0  0
    1.5082    4.7372    0.0000 H   0  0  0  0  0  0  0  0  0  0  0  0
    4.5895    5.4224    0.0000 H   0  0  0  0  0  0  0  0  0  0  0  0
    2.7363    5.4386    0.0000 H   0  0  0  0  0  0  0  0  0  0  0  0
    3.6675    5.9655    0.0000 H   0  0  0  0  0  0  0  0  0  0  0  0
    3.9404   -0.5350    0.0000 H   0  0  0  0  0  0  0  0  0  0  0  0
    5.7936   -0.5350    0.0000 H   0  0  0  0  0  0  0  0  0  0  0  0
    4.8670   -1.0700    0.0000 H   0  0  0  0  0  0  0  0  0  0  0  0
   10.6697    5.9403    0.0000 H   0  0  0  0  0  0  0  0  0  0  0  0
    2.4471    0.3588    0.0000 H   0  0  0  0  0  0  0  0  0  0  0  0
    0.2795    4.0275    0.0000 H   0  0  0  0  0  0  0  0  0  0  0  0
    0.2863    2.9543    0.0000 H   0  0  0  0  0  0  0  0  0  0  0  0
    9.9965    8.2631    0.0000 H   0  0  0  0  0  0  0  0  0  0  0  0
    8.5408    9.4102    0.0000 H   0  0  0  0  0  0  0  0  0  0  0  0
    9.5998    9.2568    0.0000 H   0  0  0  0  0  0  0  0  0  0  0  0
    7.6624    7.7077    0.0000 H   0  0  0  0  0  0  0  0  0  0  0  0
    5.8723    7.2281    0.0000 H   0  0  0  0  0  0  0  0  0  0  0  0
    6.6289    7.9846    0.0000 H   0  0  0  0  0  0  0  0  0  0  0  0
  1  2  1  0  0  0  0
  1  3  1  0  0  0  0
  1  4  1  0  0  0  0
  1 26  1  1  0  0  0
  2  5  1  0  0  0  0
  2  6  1  0  0  0  0
  2 27  1  6  0  0  0
  3  7  1  0  0  0  0
  3  8  1  0  0  0  0
  3 28  1  6  0  0  0
  4  9  1  0  0  0  0
  4 29  1  0  0  0  0
  4 30  1  0  0  0  0
  5 10  1  0  0  0  0
  5 11  1  0  0  0  0
  5 25  1  1  0  0  0
  6 12  1  0  0  0  0
  6 31  1  0  0  0  0
  6 32  1  0  0  0  0
  7 13  1  0  0  0  0
  7 14  1  0  0  0  0
  7 15  1  1  0  0  0
  8 11  1  0  0  0  0
  8 33  1  0  0  0  0
  8 34  1  0  0  0  0
  9 16  1  0  0  0  0
  9 13  1  0  0  0  0
  9 35  1  1  0  0  0
 10 17  1  1  0  0  0
 10 18  1  0  0  0  0
 10 12  1  0  0  0  0
 11 36  1  0  0  0  0
 11 37  1  0  0  0  0
 12 38  1  0  0  0  0
 12 39  1  0  0  0  0
 13 19  2  0  0  0  0
 14 20  1  0  0  0  0
 14 40  1  0  0  0  0
 14 41  1  0  0  0  0
 15 42  1  0  0  0  0
 15 43  1  0  0  0  0
 15 44  1  0  0  0  0
 16 45  1  0  0  0  0
 16 46  1  0  0  0  0
 16 47  1  0  0  0  0
 17 21  1  0  0  0  0
 17 22  2  0  0  0  0
 18 48  1  0  0  0  0
 19 23  1  0  0  0  0
 19 49  1  0  0  0  0
 20 23  1  0  0  0  0
 20 50  1  0  0  0  0
 20 51  1  0  0  0  0
 21 52  1  0  0  0  0
 21 53  1  0  0  0  0
 21 54  1  0  0  0  0
 23 24  2  0  0  0  0
 25 55  1  0  0  0  0
 25 56  1  0  0  0  0
 25 57  1  0  0  0  0
M  END
>  <Mol_ID>
1694

>  <Formula>
C22H32O3

>  <MolWeight>
344.48768

>  <Cat>
S3635

>  <Name>
Medroxyprogesterone

>  <Synonyms>
MP

>  <Target>
Estrogen/progestogen Receptor

>  <Form>
free base

>  <CAS>
520-85-4

>  <URL>
http://selleckchem.com/products/medroxyprogesterone.html

$$$$
