S3643 Amitraz.cdx
 OpenBabel08302519503D

 45 46  0  0  0  0  0  0  0  0999 V2000
    1.3492   -1.0566    0.1961 C   0  0  0  0  0  0  0  0  0  0  0  0
    1.1248    0.2489   -0.2813 C   0  0  0  0  0  0  0  0  0  0  0  0
    0.2719   -1.7322    0.7958 C   0  0  0  0  0  0  0  0  0  0  0  0
    2.5165   -1.8313    0.0291 N   0  0  0  0  0  0  0  0  0  0  0  0
   -0.1555    0.8340   -0.1212 C   0  0  0  0  0  0  0  0  0  0  0  0
    2.1532    1.1063   -0.9582 C   0  0  0  0  0  0  0  0  0  0  0  0
   -0.9931   -1.1547    0.9260 C   0  0  0  0  0  0  0  0  0  0  0  0
    3.6932   -1.3593    0.2708 C   0  0  0  0  0  0  0  0  0  0  0  0
   -1.2220    0.1358    0.4566 C   0  0  0  0  0  0  0  0  0  0  0  0
    4.9029   -2.0375    0.1483 N   0  0  0  0  0  0  0  0  0  0  0  0
   -2.5812    0.7667    0.5220 C   0  0  0  0  0  0  0  0  0  0  0  0
    6.1592   -1.4465    0.1066 C   0  0  0  0  0  0  0  0  0  0  0  0
    4.8219   -3.4928    0.0012 C   0  0  0  0  0  0  0  0  0  0  0  0
    7.3082   -1.9960   -0.1235 N   0  0  0  0  0  0  0  0  0  0  0  0
    8.4549   -1.1712   -0.2004 C   0  0  0  0  0  0  0  0  0  0  0  0
    9.6906   -1.6131    0.3059 C   0  0  0  0  0  0  0  0  0  0  0  0
    8.4151    0.0715   -0.8551 C   0  0  0  0  0  0  0  0  0  0  0  0
   10.8278   -0.7827    0.2023 C   0  0  0  0  0  0  0  0  0  0  0  0
    9.8680   -2.9543    0.9642 C   0  0  0  0  0  0  0  0  0  0  0  0
    9.5446    0.8891   -0.9526 C   0  0  0  0  0  0  0  0  0  0  0  0
   10.7623    0.4701   -0.4200 C   0  0  0  0  0  0  0  0  0  0  0  0
   11.9911    1.3226   -0.5354 C   0  0  0  0  0  0  0  0  0  0  0  0
    0.4204   -2.7528    1.1427 H   0  0  0  0  0  0  0  0  0  0  0  0
   -0.3276    1.8461   -0.4842 H   0  0  0  0  0  0  0  0  0  0  0  0
    1.7086    1.6285   -1.8133 H   0  0  0  0  0  0  0  0  0  0  0  0
    2.5293    1.8567   -0.2539 H   0  0  0  0  0  0  0  0  0  0  0  0
    2.9953    0.5355   -1.3555 H   0  0  0  0  0  0  0  0  0  0  0  0
   -1.7995   -1.7313    1.3740 H   0  0  0  0  0  0  0  0  0  0  0  0
    3.8475   -0.3158    0.5959 H   0  0  0  0  0  0  0  0  0  0  0  0
   -2.5455    1.6947    1.1018 H   0  0  0  0  0  0  0  0  0  0  0  0
   -2.9385    0.9914   -0.4894 H   0  0  0  0  0  0  0  0  0  0  0  0
   -3.3138    0.1025    0.9922 H   0  0  0  0  0  0  0  0  0  0  0  0
    6.0751   -0.3566    0.2727 H   0  0  0  0  0  0  0  0  0  0  0  0
    4.2804   -3.9227    0.8529 H   0  0  0  0  0  0  0  0  0  0  0  0
    4.2954   -3.7642   -0.9201 H   0  0  0  0  0  0  0  0  0  0  0  0
    5.8040   -3.9765   -0.0227 H   0  0  0  0  0  0  0  0  0  0  0  0
    7.4955    0.4164   -1.3191 H   0  0  0  0  0  0  0  0  0  0  0  0
   11.7789   -1.1283    0.6038 H   0  0  0  0  0  0  0  0  0  0  0  0
   10.6966   -3.4928    0.4899 H   0  0  0  0  0  0  0  0  0  0  0  0
   10.0976   -2.8218    2.0266 H   0  0  0  0  0  0  0  0  0  0  0  0
    8.9815   -3.5892    0.8822 H   0  0  0  0  0  0  0  0  0  0  0  0
    9.4603    1.8492   -1.4555 H   0  0  0  0  0  0  0  0  0  0  0  0
   12.4037    1.5304    0.4557 H   0  0  0  0  0  0  0  0  0  0  0  0
   12.7454    0.8192   -1.1479 H   0  0  0  0  0  0  0  0  0  0  0  0
   11.7623    2.2874   -1.0079 H   0  0  0  0  0  0  0  0  0  0  0  0
  1  2  2  0  0  0  0
  1  3  1  0  0  0  0
  1  4  1  0  0  0  0
  2  5  1  0  0  0  0
  2  6  1  0  0  0  0
  3  7  2  0  0  0  0
  3 23  1  0  0  0  0
  4  8  2  0  0  0  0
  5  9  2  0  0  0  0
  5 24  1  0  0  0  0
  6 25  1  0  0  0  0
  6 26  1  0  0  0  0
  6 27  1  0  0  0  0
  7  9  1  0  0  0  0
  7 28  1  0  0  0  0
  8 10  1  0  0  0  0
  8 29  1  0  0  0  0
  9 11  1  0  0  0  0
 10 12  1  0  0  0  0
 10 13  1  0  0  0  0
 11 30  1  0  0  0  0
 11 31  1  0  0  0  0
 11 32  1  0  0  0  0
 12 14  2  0  0  0  0
 12 33  1  0  0  0  0
 13 34  1  0  0  0  0
 13 35  1  0  0  0  0
 13 36  1  0  0  0  0
 14 15  1  0  0  0  0
 15 16  2  0  0  0  0
 15 17  1  0  0  0  0
 16 18  1  0  0  0  0
 16 19  1  0  0  0  0
 17 20  2  0  0  0  0
 17 37  1  0  0  0  0
 18 21  2  0  0  0  0
 18 38  1  0  0  0  0
 19 39  1  0  0  0  0
 19 40  1  0  0  0  0
 19 41  1  0  0  0  0
 20 21  1  0  0  0  0
 20 42  1  0  0  0  0
 21 22  1  0  0  0  0
 22 43  1  0  0  0  0
 22 44  1  0  0  0  0
 22 45  1  0  0  0  0
M  END
>  <Mol_ID>
1750

>  <Formula>
C19H23N3

>  <MolWeight>
293.40602

>  <Cat>
S3643

>  <Name>
Amitraz

>  <Synonyms>
NSC 324552

>  <Target>
Adrenergic Receptor

>  <Form>
free base

>  <CAS>
33089-61-1

>  <URL>
http://selleckchem.com/products/amitraz.html

$$$$
