S3659 Fludrocortisone (acetate).cdx
 OpenBabel08302519503D

 61 64  0  0  0  0  0  0  0  0999 V2000
   -0.3192    1.1147    0.1277 C   0  0  2  0  0  0  0  0  0  0  0  0
   -1.7674    1.7009    0.5526 C   0  0  2  0  0  0  0  0  0  0  0  0
    0.0715   -0.2681    0.9406 C   0  0  2  0  0  0  0  0  0  0  0  0
    0.8118    2.1553    0.0189 C   0  0  2  0  0  0  0  0  0  0  0  0
   -0.4705    0.7301   -1.2045 F   0  0  0  0  0  0  0  0  0  0  0  0
   -2.6808    0.5415    0.1250 C   0  0  0  0  0  0  0  0  0  0  0  0
   -2.2661    3.0693   -0.0875 C   0  0  0  0  0  0  0  0  0  0  0  0
   -1.7680    2.0328    2.0650 C   0  0  0  0  0  0  0  0  0  0  0  0
    1.4779   -0.8698    0.5753 C   0  0  1  0  0  0  0  0  0  0  0  0
   -1.0344   -1.2897    0.5383 C   0  0  0  0  0  0  0  0  0  0  0  0
    2.0635    1.4503   -0.5257 C   0  0  0  0  0  0  0  0  0  0  0  0
    1.0832    2.9727    1.1500 O   0  0  0  0  0  0  0  0  0  0  0  0
   -2.4643   -0.7802    0.8206 C   0  0  0  0  0  0  0  0  0  0  0  0
   -3.3990    0.5517   -1.0181 C   0  0  0  0  0  0  0  0  0  0  0  0
   -3.3896    3.0303   -1.1223 C   0  0  0  0  0  0  0  0  0  0  0  0
    2.4935    0.2032    0.2479 C   0  0  2  0  0  0  0  0  0  0  0  0
    2.5459   -1.8658    1.3736 C   0  0  0  0  0  0  0  0  0  0  0  0
   -3.4761    1.7658   -1.8535 C   0  0  0  0  0  0  0  0  0  0  0  0
    3.5657   -0.7565   -0.4912 C   0  0  2  0  0  0  0  0  0  0  0  0
    2.8915    0.8033    1.6920 C   0  0  0  0  0  0  0  0  0  0  0  0
    4.0444   -1.4816    0.7393 C   0  0  0  0  0  0  0  0  0  0  0  0
   -3.7334    1.6987   -3.0558 O   0  0  0  0  0  0  0  0  0  0  0  0
    3.9937   -0.3863   -1.9303 C   0  0  0  0  0  0  0  0  0  0  0  0
    2.9739   -2.0055   -1.1508 O   0  0  0  0  0  0  0  0  0  0  0  0
    5.4234   -0.5254   -2.3853 C   0  0  0  0  0  0  0  0  0  0  0  0
    3.1561   -0.0836   -2.8037 O   0  0  0  0  0  0  0  0  0  0  0  0
    5.7260   -1.5898   -3.2979 O   0  0  0  0  0  0  0  0  0  0  0  0
    5.7582   -2.8458   -2.7830 C   0  0  0  0  0  0  0  0  0  0  0  0
    5.4310   -3.1201   -1.6453 O   0  0  0  0  0  0  0  0  0  0  0  0
    6.2415   -3.8264   -3.7840 C   0  0  0  0  0  0  0  0  0  0  0  0
    0.0412   -0.1081    2.0203 H   0  0  0  0  0  0  0  0  0  0  0  0
    0.5450    2.8757   -0.7617 H   0  0  0  0  0  0  0  0  0  0  0  0
   -1.4404    3.6725   -0.4632 H   0  0  0  0  0  0  0  0  0  0  0  0
   -2.6982    3.6947    0.7116 H   0  0  0  0  0  0  0  0  0  0  0  0
   -1.2811    1.2875    2.6907 H   0  0  0  0  0  0  0  0  0  0  0  0
   -1.2452    2.9842    2.2446 H   0  0  0  0  0  0  0  0  0  0  0  0
   -2.7856    2.1714    2.4444 H   0  0  0  0  0  0  0  0  0  0  0  0
    1.2044   -1.4580   -0.3054 H   0  0  0  0  0  0  0  0  0  0  0  0
   -0.9585   -1.4865   -0.5455 H   0  0  0  0  0  0  0  0  0  0  0  0
   -0.8778   -2.2590    1.0264 H   0  0  0  0  0  0  0  0  0  0  0  0
    2.9053    2.1545   -0.5230 H   0  0  0  0  0  0  0  0  0  0  0  0
    1.8490    1.2063   -1.5642 H   0  0  0  0  0  0  0  0  0  0  0  0
    0.7222    2.5748    1.9564 H   0  0  0  0  0  0  0  0  0  0  0  0
   -3.1705   -1.5312    0.4534 H   0  0  0  0  0  0  0  0  0  0  0  0
   -2.6230   -0.6857    1.8912 H   0  0  0  0  0  0  0  0  0  0  0  0
   -3.8612   -0.3318   -1.4442 H   0  0  0  0  0  0  0  0  0  0  0  0
   -3.3155    3.8923   -1.8050 H   0  0  0  0  0  0  0  0  0  0  0  0
   -4.3739    3.1695   -0.6039 H   0  0  0  0  0  0  0  0  0  0  0  0
    2.3659   -2.9230    1.1477 H   0  0  0  0  0  0  0  0  0  0  0  0
    2.5693   -1.7705    2.4653 H   0  0  0  0  0  0  0  0  0  0  0  0
    2.0118    1.2090    2.1946 H   0  0  0  0  0  0  0  0  0  0  0  0
    3.2139    0.1004    2.4679 H   0  0  0  0  0  0  0  0  0  0  0  0
    3.6621    1.5688    1.6336 H   0  0  0  0  0  0  0  0  0  0  0  0
    4.6782   -2.3585    0.5899 H   0  0  0  0  0  0  0  0  0  0  0  0
    4.6414   -0.8067    1.3693 H   0  0  0  0  0  0  0  0  0  0  0  0
    3.6909   -2.6789   -1.1999 H   0  0  0  0  0  0  0  0  0  0  0  0
    5.6163    0.3957   -2.9507 H   0  0  0  0  0  0  0  0  0  0  0  0
    6.1039   -0.5354   -1.5392 H   0  0  0  0  0  0  0  0  0  0  0  0
    5.4344   -4.1292   -4.4617 H   0  0  0  0  0  0  0  0  0  0  0  0
    7.0811   -3.4270   -4.3641 H   0  0  0  0  0  0  0  0  0  0  0  0
    6.6139   -4.7211   -3.2649 H   0  0  0  0  0  0  0  0  0  0  0  0
  1  2  1  0  0  0  0
  1  3  1  0  0  0  0
  1  4  1  0  0  0  0
  1  5  1  6  0  0  0
  2  6  1  0  0  0  0
  2  7  1  0  0  0  0
  2  8  1  1  0  0  0
  3  9  1  0  0  0  0
  3 10  1  0  0  0  0
  3 31  1  1  0  0  0
  4 11  1  0  0  0  0
  4 12  1  0  0  0  0
  4 32  1  6  0  0  0
  6 13  1  0  0  0  0
  6 14  2  0  0  0  0
  7 15  1  0  0  0  0
  7 33  1  0  0  0  0
  7 34  1  0  0  0  0
  8 35  1  0  0  0  0
  8 36  1  0  0  0  0
  8 37  1  0  0  0  0
  9 16  1  0  0  0  0
  9 17  1  0  0  0  0
  9 38  1  6  0  0  0
 10 13  1  0  0  0  0
 10 39  1  0  0  0  0
 10 40  1  0  0  0  0
 11 16  1  0  0  0  0
 11 41  1  0  0  0  0
 11 42  1  0  0  0  0
 12 43  1  0  0  0  0
 13 44  1  0  0  0  0
 13 45  1  0  0  0  0
 14 18  1  0  0  0  0
 14 46  1  0  0  0  0
 15 18  1  0  0  0  0
 15 47  1  0  0  0  0
 15 48  1  0  0  0  0
 16 19  1  0  0  0  0
 16 20  1  1  0  0  0
 17 21  1  0  0  0  0
 17 49  1  0  0  0  0
 17 50  1  0  0  0  0
 18 22  2  0  0  0  0
 19 21  1  0  0  0  0
 19 24  1  6  0  0  0
 19 23  1  0  0  0  0
 20 51  1  0  0  0  0
 20 52  1  0  0  0  0
 20 53  1  0  0  0  0
 21 54  1  0  0  0  0
 21 55  1  0  0  0  0
 23 25  1  0  0  0  0
 23 26  2  0  0  0  0
 24 56  1  0  0  0  0
 25 27  1  0  0  0  0
 25 57  1  0  0  0  0
 25 58  1  0  0  0  0
 27 28  1  0  0  0  0
 28 29  2  0  0  0  0
 28 30  1  0  0  0  0
 30 59  1  0  0  0  0
 30 60  1  0  0  0  0
 30 61  1  0  0  0  0
M  END
>  <Mol_ID>
1708

>  <Formula>
C23H31FO6

>  <MolWeight>
422.4870432

>  <Cat>
S3659

>  <Name>
Fludrocortisone acetate

>  <Synonyms>
9¦Á-fluorocortisol acetate

>  <Target>
Others

>  <Form>
free base

>  <CAS>
514-36-3

>  <URL>
http://selleckchem.com/products/fludrocortisone-acetate.html

$$$$
