S3666 Ilaprazole.cdx
 OpenBabel08302519503D

 44 47  0  0  0  0  0  0  0  0999 V2000
   -0.2257    0.8119    0.0160 C   0  0  0  0  0  0  0  0  0  0  0  0
   -0.2568   -0.5776   -0.0007 C   0  0  0  0  0  0  0  0  0  0  0  0
    0.9988    1.4801   -0.0108 C   0  0  0  0  0  0  0  0  0  0  0  0
   -1.4838    1.3408    0.0791 N   0  0  0  0  0  0  0  0  0  0  0  0
   -1.6020   -0.8765    0.0403 N   0  0  0  0  0  0  0  0  0  0  0  0
    0.9087   -1.3673   -0.0362 C   0  0  0  0  0  0  0  0  0  0  0  0
    2.1764    0.7255   -0.0231 C   0  0  0  0  0  0  0  0  0  0  0  0
   -2.2932    0.3072    0.1285 C   0  0  0  0  0  0  0  0  0  0  0  0
    2.1479   -0.6799   -0.0344 C   0  0  0  0  0  0  0  0  0  0  0  0
   -4.0171    0.4417    0.3168 S   0  0  3  0  0  0  0  0  0  0  0  0
   -4.2138    2.0447   -0.5185 C   0  0  0  0  0  0  0  0  0  0  0  0
   -4.6011   -0.6806   -0.4925 O   0  0  0  0  0  0  0  0  0  0  0  0
   -5.6191    2.5906   -0.4245 C   0  0  0  0  0  0  0  0  0  0  0  0
   -6.5921    2.3890   -1.4253 C   0  0  0  0  0  0  0  0  0  0  0  0
   -5.8584    3.3181    0.7026 N   0  0  0  0  0  0  0  0  0  0  0  0
   -7.8377    3.0148   -1.2401 C   0  0  0  0  0  0  0  0  0  0  0  0
   -6.2720    1.5628   -2.6357 C   0  0  0  0  0  0  0  0  0  0  0  0
   -7.0728    3.8758    0.8509 C   0  0  0  0  0  0  0  0  0  0  0  0
   -8.0791    3.7537   -0.0815 C   0  0  0  0  0  0  0  0  0  0  0  0
   -8.9455    2.8903   -2.0375 O   0  0  0  0  0  0  0  0  0  0  0  0
   -8.7779    3.0863   -3.4357 C   0  0  0  0  0  0  0  0  0  0  0  0
    3.3881   -1.4039   -0.0332 N   0  0  0  0  0  0  0  0  0  0  0  0
    4.6592   -0.8632    0.0895 C   0  0  0  0  0  0  0  0  0  0  0  0
    5.5998   -1.8678    0.0265 C   0  0  0  0  0  0  0  0  0  0  0  0
    4.9000   -3.0771   -0.1346 C   0  0  0  0  0  0  0  0  0  0  0  0
    3.5553   -2.7722   -0.1560 C   0  0  0  0  0  0  0  0  0  0  0  0
    1.0274    2.5640   -0.0029 H   0  0  0  0  0  0  0  0  0  0  0  0
   -2.0256   -1.7947    0.0364 H   0  0  0  0  0  0  0  0  0  0  0  0
    0.8303   -2.4487   -0.0361 H   0  0  0  0  0  0  0  0  0  0  0  0
    3.1043    1.2882   -0.0315 H   0  0  0  0  0  0  0  0  0  0  0  0
   -3.5535    2.7654   -0.0216 H   0  0  0  0  0  0  0  0  0  0  0  0
   -3.8716    1.9680   -1.5547 H   0  0  0  0  0  0  0  0  0  0  0  0
   -5.8867    2.2064   -3.4334 H   0  0  0  0  0  0  0  0  0  0  0  0
   -5.5259    0.7934   -2.4282 H   0  0  0  0  0  0  0  0  0  0  0  0
   -7.1436    1.0089   -2.9870 H   0  0  0  0  0  0  0  0  0  0  0  0
   -7.2203    4.4378    1.7687 H   0  0  0  0  0  0  0  0  0  0  0  0
   -9.0422    4.2218    0.0900 H   0  0  0  0  0  0  0  0  0  0  0  0
   -7.9913    3.8076   -3.6772 H   0  0  0  0  0  0  0  0  0  0  0  0
   -8.6046    2.1298   -3.9341 H   0  0  0  0  0  0  0  0  0  0  0  0
   -9.7241    3.4698   -3.8320 H   0  0  0  0  0  0  0  0  0  0  0  0
    4.8212    0.1953    0.2250 H   0  0  0  0  0  0  0  0  0  0  0  0
    6.6713   -1.7329    0.0898 H   0  0  0  0  0  0  0  0  0  0  0  0
    5.3273   -4.0676   -0.2253 H   0  0  0  0  0  0  0  0  0  0  0  0
    2.7135   -3.4360   -0.2721 H   0  0  0  0  0  0  0  0  0  0  0  0
  1  2  1  0  0  0  0
  1  3  2  0  0  0  0
  1  4  1  0  0  0  0
  2  5  1  0  0  0  0
  2  6  2  0  0  0  0
  3  7  1  0  0  0  0
  3 27  1  0  0  0  0
  4  8  2  0  0  0  0
  5  8  1  0  0  0  0
  5 28  1  0  0  0  0
  6  9  1  0  0  0  0
  6 29  1  0  0  0  0
  7  9  2  0  0  0  0
  7 30  1  0  0  0  0
  8 10  1  0  0  0  0
  9 22  1  0  0  0  0
 10 11  1  0  0  0  0
 10 12  2  0  0  0  0
 11 13  1  0  0  0  0
 11 31  1  0  0  0  0
 11 32  1  0  0  0  0
 13 14  2  0  0  0  0
 13 15  1  0  0  0  0
 14 16  1  0  0  0  0
 14 17  1  0  0  0  0
 15 18  2  0  0  0  0
 16 19  2  0  0  0  0
 16 20  1  0  0  0  0
 17 33  1  0  0  0  0
 17 34  1  0  0  0  0
 17 35  1  0  0  0  0
 18 19  1  0  0  0  0
 18 36  1  0  0  0  0
 19 37  1  0  0  0  0
 20 21  1  0  0  0  0
 21 38  1  0  0  0  0
 21 39  1  0  0  0  0
 21 40  1  0  0  0  0
 22 23  1  0  0  0  0
 23 24  2  0  0  0  0
 23 41  1  0  0  0  0
 24 25  1  0  0  0  0
 24 42  1  0  0  0  0
 25 26  2  0  0  0  0
 25 43  1  0  0  0  0
 26 22  1  0  0  0  0
 26 44  1  0  0  0  0
M  END
>  <Mol_ID>
1748

>  <Formula>
C19H18N4O2S

>  <MolWeight>
366.43682

>  <Cat>
S3666

>  <Name>
Ilaprazole

>  <Synonyms>
IY-81149

>  <Target>
ATPase,Proton Pump

>  <Form>
free base

>  <CAS>
172152-36-2

>  <URL>
http://selleckchem.com/products/ilaprazole.html

$$$$
