S3662 Pirenzepine (dihydrochloride).cdx
 OpenBabel08302521383D

 47 50  0  0  0  0  0  0  0  0999 V2000
    0.0375   -0.8741   -1.1556 N   0  0  0  0  0  0  0  0  0  0  0  0
   -1.1748   -0.5647   -0.4970 C   0  0  0  0  0  0  0  0  0  0  0  0
    1.2266   -0.4683   -0.4762 C   0  0  0  0  0  0  0  0  0  0  0  0
    0.1154   -1.6920   -2.2875 C   0  0  0  0  0  0  0  0  0  0  0  0
   -1.5577    0.7696   -0.3384 C   0  0  0  0  0  0  0  0  0  0  0  0
   -1.9916   -1.5865   -0.1222 N   0  0  0  0  0  0  0  0  0  0  0  0
    1.4429    0.8312   -0.0061 C   0  0  0  0  0  0  0  0  0  0  0  0
    2.2517   -1.4241   -0.2821 C   0  0  0  0  0  0  0  0  0  0  0  0
   -1.2028   -2.2060   -2.9180 C   0  0  0  0  0  0  0  0  0  0  0  0
    1.2057   -1.9056   -2.8389 O   0  0  0  0  0  0  0  0  0  0  0  0
   -0.7492    1.8622   -0.6585 N   0  0  0  0  0  0  0  0  0  0  0  0
   -2.8271    1.0560    0.1624 C   0  0  0  0  0  0  0  0  0  0  0  0
   -3.1727   -1.2736    0.4608 C   0  0  0  0  0  0  0  0  0  0  0  0
    0.5745    1.9901   -0.3259 C   0  0  0  0  0  0  0  0  0  0  0  0
    2.6461    1.1357    0.6672 C   0  0  0  0  0  0  0  0  0  0  0  0
    3.4482   -1.1048    0.3636 C   0  0  0  0  0  0  0  0  0  0  0  0
   -0.9486   -2.9956   -4.1429 N   0  0  0  0  0  0  0  0  0  0  0  0
   -3.6400    0.0197    0.6029 C   0  0  0  0  0  0  0  0  0  0  0  0
    1.0221    3.1346   -0.2395 O   0  0  0  0  0  0  0  0  0  0  0  0
    3.6418    0.1777    0.8502 C   0  0  0  0  0  0  0  0  0  0  0  0
   -0.2438   -4.2612   -3.8567 C   0  0  0  0  0  0  0  0  0  0  0  0
   -2.1897   -3.2882   -4.8844 C   0  0  0  0  0  0  0  0  0  0  0  0
    0.0560   -5.0418   -5.1545 C   0  0  0  0  0  0  0  0  0  0  0  0
   -1.9238   -4.1295   -6.1621 C   0  0  0  0  0  0  0  0  0  0  0  0
   -1.1377   -5.3647   -5.9589 N   0  0  0  0  0  0  0  0  0  0  0  0
   -1.9329   -6.4181   -5.3284 C   0  0  0  0  0  0  0  0  0  0  0  0
    2.1300   -2.4475   -0.6358 H   0  0  0  0  0  0  0  0  0  0  0  0
   -1.7875   -1.3142   -3.1865 H   0  0  0  0  0  0  0  0  0  0  0  0
   -1.7638   -2.8097   -2.2029 H   0  0  0  0  0  0  0  0  0  0  0  0
   -1.1865    2.7743   -0.7154 H   0  0  0  0  0  0  0  0  0  0  0  0
   -3.1681    2.0832    0.2676 H   0  0  0  0  0  0  0  0  0  0  0  0
   -3.7552   -2.1160    0.8250 H   0  0  0  0  0  0  0  0  0  0  0  0
    2.8315    2.1490    1.0221 H   0  0  0  0  0  0  0  0  0  0  0  0
    4.2276   -1.8556    0.4685 H   0  0  0  0  0  0  0  0  0  0  0  0
   -4.5994    0.2243    1.0673 H   0  0  0  0  0  0  0  0  0  0  0  0
    4.5746    0.4463    1.3399 H   0  0  0  0  0  0  0  0  0  0  0  0
    0.7171   -4.0875   -3.3659 H   0  0  0  0  0  0  0  0  0  0  0  0
   -0.8335   -4.8787   -3.1674 H   0  0  0  0  0  0  0  0  0  0  0  0
   -2.9066   -3.8154   -4.2426 H   0  0  0  0  0  0  0  0  0  0  0  0
   -2.6622   -2.3482   -5.1931 H   0  0  0  0  0  0  0  0  0  0  0  0
    0.7375   -4.4427   -5.7746 H   0  0  0  0  0  0  0  0  0  0  0  0
    0.6099   -5.9562   -4.9109 H   0  0  0  0  0  0  0  0  0  0  0  0
   -1.3740   -3.5015   -6.8764 H   0  0  0  0  0  0  0  0  0  0  0  0
   -2.8762   -4.3660   -6.6524 H   0  0  0  0  0  0  0  0  0  0  0  0
   -2.3469   -6.1286   -4.3579 H   0  0  0  0  0  0  0  0  0  0  0  0
   -2.7641   -6.7047   -5.9813 H   0  0  0  0  0  0  0  0  0  0  0  0
   -1.3235   -7.3168   -5.1835 H   0  0  0  0  0  0  0  0  0  0  0  0
  1  2  1  0  0  0  0
  1  3  1  0  0  0  0
  1  4  1  0  0  0  0
  2  5  1  0  0  0  0
  2  6  2  0  0  0  0
  3  7  2  0  0  0  0
  3  8  1  0  0  0  0
  4  9  1  0  0  0  0
  4 10  2  0  0  0  0
  5 11  1  0  0  0  0
  5 12  2  0  0  0  0
  6 13  1  0  0  0  0
  7 14  1  0  0  0  0
  7 15  1  0  0  0  0
  8 16  2  0  0  0  0
  8 27  1  0  0  0  0
  9 17  1  0  0  0  0
  9 28  1  0  0  0  0
  9 29  1  0  0  0  0
 11 14  1  0  0  0  0
 11 30  1  0  0  0  0
 12 18  1  0  0  0  0
 12 31  1  0  0  0  0
 13 18  2  0  0  0  0
 13 32  1  0  0  0  0
 14 19  2  0  0  0  0
 15 20  2  0  0  0  0
 15 33  1  0  0  0  0
 16 20  1  0  0  0  0
 16 34  1  0  0  0  0
 17 21  1  0  0  0  0
 17 22  1  0  0  0  0
 18 35  1  0  0  0  0
 20 36  1  0  0  0  0
 21 23  1  0  0  0  0
 21 37  1  0  0  0  0
 21 38  1  0  0  0  0
 22 24  1  0  0  0  0
 22 39  1  0  0  0  0
 22 40  1  0  0  0  0
 23 25  1  0  0  0  0
 23 41  1  0  0  0  0
 23 42  1  0  0  0  0
 24 25  1  0  0  0  0
 24 43  1  0  0  0  0
 24 44  1  0  0  0  0
 25 26  1  0  0  0  0
 26 45  1  0  0  0  0
 26 46  1  0  0  0  0
 26 47  1  0  0  0  0
M  END
>  <Mol_ID>
7792

>  <Formula>
C19H23Cl2N5O2

>  <MolWeight>
424.32422

>  <Cat>
S3662

>  <Name>
Pirenzepine dihydrochloride

>  <Synonyms>
N/A

>  <Target>
AChR

>  <Form>
dihydrochloride

>  <CAS>
29868-97-1

>  <URL>
http://selleckchem.com/products/pirenzepine-dihydrochloride.html

$$$$
