S3665 Trolox.cdx
 OpenBabel08302519503D

 36 37  0  0  0  0  0  0  0  0999 V2000
    0.0210    0.7654    0.0099 C   0  0  0  0  0  0  0  0  0  0  0  0
   -0.0021   -0.6398    0.0030 C   0  0  0  0  0  0  0  0  0  0  0  0
   -1.2603    1.5574    0.0311 C   0  0  0  0  0  0  0  0  0  0  0  0
    1.2599    1.4390    0.0301 C   0  0  0  0  0  0  0  0  0  0  0  0
   -1.1717   -1.3599    0.0798 O   0  0  0  0  0  0  0  0  0  0  0  0
    1.1890   -1.3937   -0.0668 C   0  0  0  0  0  0  0  0  0  0  0  0
   -2.4644    0.6811   -0.2549 C   0  0  0  0  0  0  0  0  0  0  0  0
    2.4450    0.6874   -0.0097 C   0  0  0  0  0  0  0  0  0  0  0  0
    1.3021    2.9456    0.1197 C   0  0  0  0  0  0  0  0  0  0  0  0
   -2.3432   -0.6425    0.4928 C   0  0  3  0  0  0  0  0  0  0  0  0
    2.4344   -0.7216   -0.0659 C   0  0  0  0  0  0  0  0  0  0  0  0
    1.1317   -2.9019   -0.1302 C   0  0  0  0  0  0  0  0  0  0  0  0
    3.6194    1.3924    0.0106 O   0  0  0  0  0  0  0  0  0  0  0  0
   -2.3626   -0.4551    2.0244 C   0  0  0  0  0  0  0  0  0  0  0  0
   -3.5442   -1.5200    0.1224 C   0  0  0  0  0  0  0  0  0  0  0  0
    3.7392   -1.4785   -0.0967 C   0  0  0  0  0  0  0  0  0  0  0  0
   -1.6576   -1.4028    2.6960 O   0  0  0  0  0  0  0  0  0  0  0  0
   -2.9760    0.4305    2.6081 O   0  0  0  0  0  0  0  0  0  0  0  0
   -1.2352    2.3496   -0.7250 H   0  0  0  0  0  0  0  0  0  0  0  0
   -1.3675    2.0319    1.0128 H   0  0  0  0  0  0  0  0  0  0  0  0
   -2.5029    0.4863   -1.3356 H   0  0  0  0  0  0  0  0  0  0  0  0
   -3.3821    1.2183    0.0105 H   0  0  0  0  0  0  0  0  0  0  0  0
    0.8297    3.3929   -0.7606 H   0  0  0  0  0  0  0  0  0  0  0  0
    0.7802    3.2794    1.0230 H   0  0  0  0  0  0  0  0  0  0  0  0
    2.3183    3.3450    0.1764 H   0  0  0  0  0  0  0  0  0  0  0  0
    1.6309   -3.2604   -1.0367 H   0  0  0  0  0  0  0  0  0  0  0  0
    1.6141   -3.3325    0.7534 H   0  0  0  0  0  0  0  0  0  0  0  0
    0.1117   -3.2953   -0.1616 H   0  0  0  0  0  0  0  0  0  0  0  0
    4.3776    0.7908    0.0524 H   0  0  0  0  0  0  0  0  0  0  0  0
   -3.5455   -1.7402   -0.9526 H   0  0  0  0  0  0  0  0  0  0  0  0
   -3.5067   -2.4852    0.6396 H   0  0  0  0  0  0  0  0  0  0  0  0
   -4.4915   -1.0345    0.3778 H   0  0  0  0  0  0  0  0  0  0  0  0
    4.3281   -1.1758   -0.9689 H   0  0  0  0  0  0  0  0  0  0  0  0
    4.3074   -1.2732    0.8167 H   0  0  0  0  0  0  0  0  0  0  0  0
    3.6190   -2.5623   -0.1571 H   0  0  0  0  0  0  0  0  0  0  0  0
   -1.1846   -1.9877    2.0679 H   0  0  0  0  0  0  0  0  0  0  0  0
  1  2  2  0  0  0  0
  1  3  1  0  0  0  0
  1  4  1  0  0  0  0
  2  5  1  0  0  0  0
  2  6  1  0  0  0  0
  3  7  1  0  0  0  0
  3 19  1  0  0  0  0
  3 20  1  0  0  0  0
  4  8  2  0  0  0  0
  4  9  1  0  0  0  0
  5 10  1  0  0  0  0
  6 11  2  0  0  0  0
  6 12  1  0  0  0  0
  7 10  1  0  0  0  0
  7 21  1  0  0  0  0
  7 22  1  0  0  0  0
  8 13  1  0  0  0  0
  8 11  1  0  0  0  0
  9 23  1  0  0  0  0
  9 24  1  0  0  0  0
  9 25  1  0  0  0  0
 10 14  1  0  0  0  0
 10 15  1  0  0  0  0
 11 16  1  0  0  0  0
 12 26  1  0  0  0  0
 12 27  1  0  0  0  0
 12 28  1  0  0  0  0
 13 29  1  0  0  0  0
 14 17  1  0  0  0  0
 14 18  2  0  0  0  0
 15 30  1  0  0  0  0
 15 31  1  0  0  0  0
 15 32  1  0  0  0  0
 16 33  1  0  0  0  0
 16 34  1  0  0  0  0
 16 35  1  0  0  0  0
 17 36  1  0  0  0  0
M  END
>  <Mol_ID>
1682

>  <Formula>
C14H18O4

>  <MolWeight>
250.29032

>  <Cat>
S3665

>  <Name>
Trolox

>  <Synonyms>
N/A

>  <Target>
Vitamin

>  <Form>
free base

>  <CAS>
53188-07-1

>  <URL>
http://selleckchem.com/products/trolox.html

$$$$
