S3676 Carbendazim.cdx
 OpenBabel08302519503D

 23 24  0  0  0  0  0  0  0  0999 V2000
   -0.2652   -0.6710   -0.0043 C   0  0  0  0  0  0  0  0  0  0  0  0
   -0.2678    0.7181   -0.0071 C   0  0  0  0  0  0  0  0  0  0  0  0
   -1.5987   -1.0029   -0.0016 N   0  0  0  0  0  0  0  0  0  0  0  0
    0.9086   -1.4300   -0.0042 C   0  0  0  0  0  0  0  0  0  0  0  0
   -1.5463    1.2033   -0.0055 N   0  0  0  0  0  0  0  0  0  0  0  0
    0.9488    1.4132   -0.0106 C   0  0  0  0  0  0  0  0  0  0  0  0
   -2.3365    0.1575   -0.0006 C   0  0  0  0  0  0  0  0  0  0  0  0
    2.1167   -0.7177   -0.0077 C   0  0  0  0  0  0  0  0  0  0  0  0
    2.1400    0.6796   -0.0109 C   0  0  0  0  0  0  0  0  0  0  0  0
   -3.7065    0.1417    0.0062 N   0  0  0  0  0  0  0  0  0  0  0  0
   -4.4440    1.2940    0.0104 C   0  0  0  0  0  0  0  0  0  0  0  0
   -5.7661    0.9526    0.0201 O   0  0  0  0  0  0  0  0  0  0  0  0
   -4.0577    2.4522    0.0077 O   0  0  0  0  0  0  0  0  0  0  0  0
   -6.6441    2.0828    0.0280 C   0  0  0  0  0  0  0  0  0  0  0  0
   -1.9702   -1.9390    0.0011 H   0  0  0  0  0  0  0  0  0  0  0  0
    0.8987   -2.5143   -0.0016 H   0  0  0  0  0  0  0  0  0  0  0  0
    0.9508    2.4977   -0.0124 H   0  0  0  0  0  0  0  0  0  0  0  0
    3.0593   -1.2623   -0.0082 H   0  0  0  0  0  0  0  0  0  0  0  0
    3.0905    1.2081   -0.0136 H   0  0  0  0  0  0  0  0  0  0  0  0
   -4.2236   -0.7220    0.0096 H   0  0  0  0  0  0  0  0  0  0  0  0
   -6.4865    2.6869    0.9278 H   0  0  0  0  0  0  0  0  0  0  0  0
   -6.5020    2.6876   -0.8738 H   0  0  0  0  0  0  0  0  0  0  0  0
   -7.6738    1.7151    0.0368 H   0  0  0  0  0  0  0  0  0  0  0  0
  1  2  2  0  0  0  0
  1  3  1  0  0  0  0
  1  4  1  0  0  0  0
  2  5  1  0  0  0  0
  2  6  1  0  0  0  0
  3  7  1  0  0  0  0
  3 15  1  0  0  0  0
  4  8  2  0  0  0  0
  4 16  1  0  0  0  0
  5  7  2  0  0  0  0
  6  9  2  0  0  0  0
  6 17  1  0  0  0  0
  7 10  1  0  0  0  0
  8  9  1  0  0  0  0
  8 18  1  0  0  0  0
  9 19  1  0  0  0  0
 10 11  1  0  0  0  0
 10 20  1  0  0  0  0
 11 12  1  0  0  0  0
 11 13  2  0  0  0  0
 12 14  1  0  0  0  0
 14 21  1  0  0  0  0
 14 22  1  0  0  0  0
 14 23  1  0  0  0  0
M  END
>  <Mol_ID>
1675

>  <Formula>
C9H9N3O2

>  <MolWeight>
191.18666

>  <Cat>
S3676

>  <Name>
Carbendazim

>  <Synonyms>
Mercarzole, Carbendazole

>  <Target>
Fungal

>  <Form>
free base

>  <CAS>
10605-21-7

>  <URL>
http://selleckchem.com/products/carbendazim.html

$$$$
