S3682 Ethyl 3-Aminobenzoate methanesulfonate.cdx
 OpenBabel08302519503D

 32 31  0  0  0  0  0  0  0  0999 V2000
   -1.9935    1.9270    0.5943 C   0  0  0  0  0  0  0  0  0  0  0  0
   -2.9322    3.0703    0.5470 C   0  0  0  0  0  0  0  0  0  0  0  0
   -0.6090    2.1319    0.6186 C   0  0  0  0  0  0  0  0  0  0  0  0
   -2.5170    0.6341    0.5102 C   0  0  0  0  0  0  0  0  0  0  0  0
   -2.2210    4.1985    0.2983 O   0  0  0  0  0  0  0  0  0  0  0  0
   -4.1428    2.9696    0.6160 O   0  0  0  0  0  0  0  0  0  0  0  0
    0.2576    1.0698    0.3820 C   0  0  0  0  0  0  0  0  0  0  0  0
   -1.6585   -0.4451    0.3454 C   0  0  0  0  0  0  0  0  0  0  0  0
   -2.9813    5.3784    0.0238 C   0  0  0  0  0  0  0  0  0  0  0  0
   -0.2828   -0.2097    0.2538 C   0  0  0  0  0  0  0  0  0  0  0  0
    1.6615    1.2694    0.5044 N   0  0  0  0  0  0  0  0  0  0  0  0
   -3.2371    5.4858   -1.4695 C   0  0  0  0  0  0  0  0  0  0  0  0
    3.3050   -1.7930   -0.3301 S   0  0  0  0  0  0  0  0  0  0  0  0
    2.6580   -1.6810    1.3272 C   0  0  0  0  0  0  0  0  0  0  0  0
    2.4477   -0.6563   -1.0824 O   0  0  0  0  0  0  0  0  0  0  0  0
    2.9175   -3.0696   -0.8841 O   0  0  0  0  0  0  0  0  0  0  0  0
    4.6802   -1.3408   -0.3024 O   0  0  0  0  0  0  0  0  0  0  0  0
   -0.2054    3.1279    0.7706 H   0  0  0  0  0  0  0  0  0  0  0  0
   -3.5912    0.4588    0.5293 H   0  0  0  0  0  0  0  0  0  0  0  0
   -2.0402   -1.4542    0.2405 H   0  0  0  0  0  0  0  0  0  0  0  0
   -3.9122    5.3877    0.5943 H   0  0  0  0  0  0  0  0  0  0  0  0
   -2.3784    6.2278    0.3565 H   0  0  0  0  0  0  0  0  0  0  0  0
    0.3290   -1.0669    0.0047 H   0  0  0  0  0  0  0  0  0  0  0  0
    1.8954    1.2203    1.5024 H   0  0  0  0  0  0  0  0  0  0  0  0
    1.8836    2.2333    0.2289 H   0  0  0  0  0  0  0  0  0  0  0  0
   -3.6385    4.5534   -1.8788 H   0  0  0  0  0  0  0  0  0  0  0  0
   -3.9382    6.2983   -1.6771 H   0  0  0  0  0  0  0  0  0  0  0  0
   -2.3033    5.6901   -2.0045 H   0  0  0  0  0  0  0  0  0  0  0  0
    2.9343   -0.7252    1.7719 H   0  0  0  0  0  0  0  0  0  0  0  0
    1.5791   -1.8299    1.3462 H   0  0  0  0  0  0  0  0  0  0  0  0
    3.1043   -2.4895    1.9089 H   0  0  0  0  0  0  0  0  0  0  0  0
    2.3484    0.1750   -0.5510 H   0  0  0  0  0  0  0  0  0  0  0  0
  1  2  1  0  0  0  0
  1  3  2  0  0  0  0
  1  4  1  0  0  0  0
  2  5  1  0  0  0  0
  2  6  2  0  0  0  0
  3  7  1  0  0  0  0
  3 18  1  0  0  0  0
  4  8  2  0  0  0  0
  4 19  1  0  0  0  0
  5  9  1  0  0  0  0
  7 10  2  0  0  0  0
  7 11  1  0  0  0  0
  8 10  1  0  0  0  0
  8 20  1  0  0  0  0
  9 12  1  0  0  0  0
  9 21  1  0  0  0  0
  9 22  1  0  0  0  0
 10 23  1  0  0  0  0
 11 24  1  0  0  0  0
 11 25  1  0  0  0  0
 12 26  1  0  0  0  0
 12 27  1  0  0  0  0
 12 28  1  0  0  0  0
 13 14  1  0  0  0  0
 13 15  1  0  0  0  0
 13 16  2  0  0  0  0
 13 17  2  0  0  0  0
 14 29  1  0  0  0  0
 14 30  1  0  0  0  0
 14 31  1  0  0  0  0
 15 32  1  0  0  0  0
M  END
>  <Mol_ID>
1724

>  <Formula>
C10H15NO5S

>  <MolWeight>
261.2948

>  <Cat>
S3682

>  <Name>
Ethyl 3-Aminobenzoate methanesulfonate

>  <Synonyms>
Ethyl m-Aminobenzoate, NSC 93790, Tricaine methanesulfonate

>  <Target>
Calcium Channel

>  <Form>
methanesulfonate

>  <CAS>
886-86-2

>  <URL>
http://selleckchem.com/products/ethyl-3-aminobenzoate-methanesulfonate.html

$$$$
