S3683 Methylmalonate.cdx
 OpenBabel08302519503D

 14 13  0  0  0  0  0  0  0  0999 V2000
    0.9763   -0.0475   -0.0758 C   0  0  0  0  0  0  0  0  0  0  0  0
    0.5161    1.0023   -1.0426 C   0  0  0  0  0  0  0  0  0  0  0  0
    0.4538   -1.4377   -0.3528 C   0  0  0  0  0  0  0  0  0  0  0  0
    0.5735    0.3605    1.3358 C   0  0  0  0  0  0  0  0  0  0  0  0
    1.3229    2.0814   -1.1248 O   0  0  0  0  0  0  0  0  0  0  0  0
   -0.5237    0.9148   -1.6838 O   0  0  0  0  0  0  0  0  0  0  0  0
   -0.7033   -1.5371   -1.0367 O   0  0  0  0  0  0  0  0  0  0  0  0
    1.0237   -2.4338    0.0793 O   0  0  0  0  0  0  0  0  0  0  0  0
    2.0683   -0.1141   -0.1635 H   0  0  0  0  0  0  0  0  0  0  0  0
    0.9473   -0.3557    2.0753 H   0  0  0  0  0  0  0  0  0  0  0  0
    0.9660    1.3503    1.5916 H   0  0  0  0  0  0  0  0  0  0  0  0
   -0.5176    0.4011    1.4374 H   0  0  0  0  0  0  0  0  0  0  0  0
    2.1240    2.0505   -0.5651 H   0  0  0  0  0  0  0  0  0  0  0  0
   -1.0597   -0.6837   -1.3868 H   0  0  0  0  0  0  0  0  0  0  0  0
  1  2  1  0  0  0  0
  1  3  1  0  0  0  0
  1  4  1  0  0  0  0
  1  9  1  0  0  0  0
  2  5  1  0  0  0  0
  2  6  2  0  0  0  0
  3  7  1  0  0  0  0
  3  8  2  0  0  0  0
  4 10  1  0  0  0  0
  4 11  1  0  0  0  0
  4 12  1  0  0  0  0
  5 13  1  0  0  0  0
  7 14  1  0  0  0  0
M  END
>  <Mol_ID>
1713

>  <Formula>
C4H6O4

>  <MolWeight>
118.08804

>  <Cat>
S3683

>  <Name>
Methylmalonate

>  <Synonyms>
Methylmalonic acid, Isosuccinic Acid, NSC 25201, MMA

>  <Target>
Others

>  <Form>
free base

>  <CAS>
516-05-2

>  <URL>
http://selleckchem.com/products/methylmalonate.html

$$$$
