S3694 Glucosamine (hydrochloride).cdx
 OpenBabel08302519503D

 25 25  0  0  0  0  0  0  0  0999 V2000
    0.7714    1.1898   -0.3155 C   0  0  2  0  0  0  0  0  0  0  0  0
    1.5070   -0.0878    0.1524 C   0  0  2  0  0  0  0  0  0  0  0  0
   -0.6255    1.2200    0.0071 O   0  0  0  0  0  0  0  0  0  0  0  0
    1.0078    1.5417   -1.7965 C   0  0  0  0  0  0  0  0  0  0  0  0
    0.6992   -1.3705   -0.1048 C   0  0  1  0  0  0  0  0  0  0  0  0
    1.8539   -0.0277    1.5444 O   0  0  0  0  0  0  0  0  0  0  0  0
   -1.3885    0.0449   -0.2157 C   0  0  3  0  0  0  0  0  0  0  0  0
    0.5598    0.5405   -2.7011 O   0  0  0  0  0  0  0  0  0  0  0  0
   -0.7675   -1.2488    0.3685 C   0  0  2  0  0  0  0  0  0  0  0  0
    0.7793   -1.7109   -1.5024 O   0  0  0  0  0  0  0  0  0  0  0  0
   -1.7117   -0.1411   -1.5907 O   0  0  0  0  0  0  0  0  0  0  0  0
   -0.9062   -1.3108    1.8371 N   0  0  0  0  0  0  0  0  0  0  0  0
    1.1903    2.0338    0.2407 H   0  0  0  0  0  0  0  0  0  0  0  0
    2.4652   -0.1495   -0.3770 H   0  0  0  0  0  0  0  0  0  0  0  0
    0.4539    2.4569   -2.0456 H   0  0  0  0  0  0  0  0  0  0  0  0
    2.0725    1.7283   -1.9910 H   0  0  0  0  0  0  0  0  0  0  0  0
    1.1689   -2.2060    0.4273 H   0  0  0  0  0  0  0  0  0  0  0  0
    1.6948    0.8720    1.8814 H   0  0  0  0  0  0  0  0  0  0  0  0
   -2.3518    0.2144    0.2716 H   0  0  0  0  0  0  0  0  0  0  0  0
    1.1415   -0.2426   -2.5882 H   0  0  0  0  0  0  0  0  0  0  0  0
   -1.3253   -2.1044   -0.0388 H   0  0  0  0  0  0  0  0  0  0  0  0
   -0.1323   -1.7432   -1.8610 H   0  0  0  0  0  0  0  0  0  0  0  0
   -1.0303    0.3329   -2.1041 H   0  0  0  0  0  0  0  0  0  0  0  0
   -1.8898   -1.4056    2.0892 H   0  0  0  0  0  0  0  0  0  0  0  0
   -0.4283   -2.1387    2.1953 H   0  0  0  0  0  0  0  0  0  0  0  0
  1  2  1  0  0  0  0
  1  3  1  0  0  0  0
  1 13  1  1  0  0  0
  1  4  1  0  0  0  0
  2  5  1  0  0  0  0
  2 14  1  6  0  0  0
  2  6  1  0  0  0  0
  3  7  1  0  0  0  0
  4  8  1  0  0  0  0
  4 15  1  0  0  0  0
  4 16  1  0  0  0  0
  5  9  1  0  0  0  0
  5 10  1  0  0  0  0
  5 17  1  1  0  0  0
  6 18  1  0  0  0  0
  7 11  1  0  0  0  0
  7  9  1  0  0  0  0
  7 19  1  0  0  0  0
  8 20  1  0  0  0  0
  9 21  1  6  0  0  0
  9 12  1  0  0  0  0
 10 22  1  0  0  0  0
 11 23  1  0  0  0  0
 12 24  1  0  0  0  0
 12 25  1  0  0  0  0
M  END
>  <Mol_ID>
1733

>  <Formula>
C6H14ClNO5

>  <MolWeight>
215.63206

>  <Cat>
S3694

>  <Name>
Glucosamine hydrochloride

>  <Synonyms>
2-Amino-2-deoxy-glucose HCl, Chitosamine HCl

>  <Target>
Others

>  <Form>
hydrochloride

>  <CAS>
66-84-2

>  <URL>
http://selleckchem.com/products/glucosamine-hydrochloride.html

$$$$
