S3709 Furagin.cdx
 OpenBabel08302519503D

 27 28  0  0  0  0  0  0  0  0999 V2000
    0.8536   -1.1569   -0.0151 N   0  0  0  0  0  0  0  0  0  0  0  0
   -0.5712   -1.3995   -0.0856 C   0  0  0  0  0  0  0  0  0  0  0  0
    1.1363    0.2154    0.0483 C   0  0  0  0  0  0  0  0  0  0  0  0
    1.7131   -2.2237   -0.0271 N   0  0  0  0  0  0  0  0  0  0  0  0
   -1.0956    0.0207   -0.0523 C   0  0  0  0  0  0  0  0  0  0  0  0
   -0.0507    0.8815    0.0258 N   0  0  0  0  0  0  0  0  0  0  0  0
    2.2176    0.7801    0.1128 O   0  0  0  0  0  0  0  0  0  0  0  0
    2.9903   -2.0315    0.0373 C   0  0  0  0  0  0  0  0  0  0  0  0
   -2.2716    0.3515   -0.0895 O   0  0  0  0  0  0  0  0  0  0  0  0
    3.9239   -3.1841    0.0084 C   0  0  0  0  0  0  0  0  0  0  0  0
    5.2480   -2.9860    0.0765 C   0  0  0  0  0  0  0  0  0  0  0  0
    6.1526   -4.0842    0.0031 C   0  0  0  0  0  0  0  0  0  0  0  0
    5.7594   -5.3974   -0.1762 O   0  0  0  0  0  0  0  0  0  0  0  0
    7.5460   -4.0740    0.0728 C   0  0  0  0  0  0  0  0  0  0  0  0
    6.8781   -6.1612   -0.2266 C   0  0  0  0  0  0  0  0  0  0  0  0
    8.0122   -5.4059   -0.0768 C   0  0  0  0  0  0  0  0  0  0  0  0
    6.6875   -7.5627   -0.4292 N   0  3  0  0  0  0  0  0  0  0  0  0
    7.7153   -8.2508   -0.4940 O   0  0  0  0  0  0  0  0  0  0  0  0
    5.5274   -7.9822   -0.5255 O   0  5  0  0  0  0  0  0  0  0  0  0
   -0.8279   -1.8874   -1.0284 H   0  0  0  0  0  0  0  0  0  0  0  0
   -0.9043   -1.9584    0.7914 H   0  0  0  0  0  0  0  0  0  0  0  0
   -0.1330    1.8830    0.0607 H   0  0  0  0  0  0  0  0  0  0  0  0
    3.4706   -1.0450    0.1053 H   0  0  0  0  0  0  0  0  0  0  0  0
    3.4733   -4.1660   -0.0851 H   0  0  0  0  0  0  0  0  0  0  0  0
    5.6643   -1.9862    0.1738 H   0  0  0  0  0  0  0  0  0  0  0  0
    8.1592   -3.1921    0.2087 H   0  0  0  0  0  0  0  0  0  0  0  0
    9.0331   -5.7633   -0.0807 H   0  0  0  0  0  0  0  0  0  0  0  0
  1  2  1  0  0  0  0
  1  3  1  0  0  0  0
  1  4  1  0  0  0  0
  2  5  1  0  0  0  0
  2 20  1  0  0  0  0
  2 21  1  0  0  0  0
  3  6  1  0  0  0  0
  3  7  2  0  0  0  0
  4  8  2  0  0  0  0
  5  9  2  0  0  0  0
  5  6  1  0  0  0  0
  6 22  1  0  0  0  0
  8 10  1  0  0  0  0
  8 23  1  0  0  0  0
 10 11  2  0  0  0  0
 10 24  1  0  0  0  0
 11 12  1  0  0  0  0
 11 25  1  0  0  0  0
 12 13  1  0  0  0  0
 12 14  2  0  0  0  0
 13 15  1  0  0  0  0
 14 16  1  0  0  0  0
 14 26  1  0  0  0  0
 15 17  1  0  0  0  0
 15 16  2  0  0  0  0
 16 27  1  0  0  0  0
 17 18  2  0  0  0  0
 17 19  1  0  0  0  0
M  CHG  2  17   1  19  -1
M  END
>  <Mol_ID>
1729

>  <Formula>
C10H8N4O5

>  <MolWeight>
264.19432

>  <Cat>
S3709

>  <Name>
Furagin

>  <Synonyms>
NF-416, F-35, Akritoin, Furazidin, Furazidine

>  <Target>
Bacterial

>  <Form>
free base

>  <CAS>
1672-88-4

>  <URL>
http://selleckchem.com/products/furagin.html

$$$$
