S3703 Phenethyl alcohol.cdx
 OpenBabel08302520003D

 19 19  0  0  0  0  0  0  0  0999 V2000
    1.3564   -0.1891    0.1254 C   0  0  0  0  0  0  0  0  0  0  0  0
    0.5024   -1.2910   -0.0133 C   0  0  0  0  0  0  0  0  0  0  0  0
    0.8022    1.0976    0.1796 C   0  0  0  0  0  0  0  0  0  0  0  0
    2.8524   -0.3745    0.2037 C   0  0  0  0  0  0  0  0  0  0  0  0
   -0.8802   -1.1078   -0.0813 C   0  0  0  0  0  0  0  0  0  0  0  0
   -0.5796    1.2789    0.1080 C   0  0  0  0  0  0  0  0  0  0  0  0
    3.5308   -0.4269   -1.1645 C   0  0  0  0  0  0  0  0  0  0  0  0
   -1.4209    0.1760   -0.0198 C   0  0  0  0  0  0  0  0  0  0  0  0
    3.3907    0.8024   -1.8695 O   0  0  0  0  0  0  0  0  0  0  0  0
    0.9058   -2.3003   -0.0576 H   0  0  0  0  0  0  0  0  0  0  0  0
    1.4476    1.9682    0.2817 H   0  0  0  0  0  0  0  0  0  0  0  0
    3.2799    0.4456    0.7945 H   0  0  0  0  0  0  0  0  0  0  0  0
    3.0717   -1.2978    0.7549 H   0  0  0  0  0  0  0  0  0  0  0  0
   -1.5388   -1.9676   -0.1772 H   0  0  0  0  0  0  0  0  0  0  0  0
   -0.9985    2.2808    0.1582 H   0  0  0  0  0  0  0  0  0  0  0  0
    4.6033   -0.6015   -1.0315 H   0  0  0  0  0  0  0  0  0  0  0  0
    3.1318   -1.2342   -1.7875 H   0  0  0  0  0  0  0  0  0  0  0  0
   -2.4976    0.3168   -0.0671 H   0  0  0  0  0  0  0  0  0  0  0  0
    2.4501    0.8787   -2.1126 H   0  0  0  0  0  0  0  0  0  0  0  0
  1  2  2  0  0  0  0
  1  3  1  0  0  0  0
  1  4  1  0  0  0  0
  2  5  1  0  0  0  0
  2 10  1  0  0  0  0
  3  6  2  0  0  0  0
  3 11  1  0  0  0  0
  4  7  1  0  0  0  0
  4 12  1  0  0  0  0
  4 13  1  0  0  0  0
  5  8  2  0  0  0  0
  5 14  1  0  0  0  0
  6  8  1  0  0  0  0
  6 15  1  0  0  0  0
  7  9  1  0  0  0  0
  7 16  1  0  0  0  0
  7 17  1  0  0  0  0
  8 18  1  0  0  0  0
  9 19  1  0  0  0  0
M  END
>  <Mol_ID>
2741

>  <Formula>
C8H10O

>  <MolWeight>
122.1644

>  <Cat>
S3703

>  <Name>
Phenethyl alcohol

>  <Synonyms>
2-phenylethanol, 2-Phenylethyl alcohol, Benzeneethanol, Phenylethanol

>  <Target>
Bacterial

>  <Form>
free base

>  <CAS>
60-12-8

>  <URL>
http://selleckchem.com/products/phenethyl-alcohol.html

$$$$
