S3732 Avibactam sodium.cdx
 OpenBabel08302519502D

 27 28  0  0  0  0  0  0  0  0999 V2000
    2.4249    2.6123    0.0000 C   0  0  1  0  0  0  0  0  0  0  0  0
    3.6373    3.3123    0.0000 N   0  0  0  0  0  0  0  0  0  0  0  0
    4.8498    1.2124    0.0000 C   0  0  1  0  0  0  0  0  0  0  0  0
    3.6374    0.5124    0.0000 C   0  0  0  0  0  0  0  0  0  0  0  0
    2.4249    1.2124    0.0000 C   0  0  0  0  0  0  0  0  0  0  0  0
    1.2124    3.3123    0.0000 C   0  0  0  0  0  0  0  0  0  0  0  0
    0.0000    2.6123    0.0000 N   0  0  0  0  0  0  0  0  0  0  0  0
    1.2124    4.7123    0.0000 O   0  0  0  0  0  0  0  0  0  0  0  0
    4.8497    4.0124    0.0000 C   0  0  0  0  0  0  0  0  0  0  0  0
    6.0622    1.9125    0.0000 N   0  0  0  0  0  0  0  0  0  0  0  0
    5.2120    5.3647    0.0000 O   0  0  0  0  0  0  0  0  0  0  0  0
    7.4145    1.5502    0.0000 O   0  0  0  0  0  0  0  0  0  0  0  0
    8.4044    2.5401    0.0000 S   0  0  0  0  0  0  0  0  0  0  0  0
    7.4145    3.5301    0.0000 O   0  0  0  0  0  0  0  0  0  0  0  0
    9.3944    1.5502    0.0000 O   0  0  0  0  0  0  0  0  0  0  0  0
    9.3944    3.5301    0.0000 O   0  5  0  0  0  0  0  0  0  0  0  0
    3.6373    1.9123    0.0000 C   0  0  0  0  0  0  0  0  0  0  0  0
    2.4249    3.6823    0.0000 H   0  0  0  0  0  0  0  0  0  0  0  0
    4.3148    2.1390    0.0000 H   0  0  0  0  0  0  0  0  0  0  0  0
    3.6374   -0.5576    0.0000 H   0  0  0  0  0  0  0  0  0  0  0  0
    2.7108   -0.0226    0.0000 H   0  0  0  0  0  0  0  0  0  0  0  0
    1.4983    0.6774    0.0000 H   0  0  0  0  0  0  0  0  0  0  0  0
    1.4982    1.7474    0.0000 H   0  0  0  0  0  0  0  0  0  0  0  0
   -0.8526    3.1045    0.0000 H   0  0  0  0  0  0  0  0  0  0  0  0
    0.0000    1.6278    0.0000 H   0  0  0  0  0  0  0  0  0  0  0  0
    2.7107    1.3773    0.0000 H   0  0  0  0  0  0  0  0  0  0  0  0
    3.6374    0.8423    0.0000 H   0  0  0  0  0  0  0  0  0  0  0  0
  1  2  1  0  0  0  0
  1  6  1  0  0  0  0
  1 18  1  6  0  0  0
  2  9  1  0  0  0  0
  2 17  1  0  0  0  0
  3  4  1  0  0  0  0
  3 10  1  0  0  0  0
  3 19  1  1  0  0  0
  4  5  1  0  0  0  0
  4 20  1  0  0  0  0
  4 21  1  0  0  0  0
  5  1  1  0  0  0  0
  5 22  1  0  0  0  0
  5 23  1  0  0  0  0
  6  8  2  0  0  0  0
  7  6  1  0  0  0  0
  7 24  1  0  0  0  0
  7 25  1  0  0  0  0
  9 10  1  0  0  0  0
  9 11  2  0  0  0  0
 12 13  1  0  0  0  0
 12 10  1  0  0  0  0
 13 14  2  0  0  0  0
 13 15  2  0  0  0  0
 13 16  1  0  0  0  0
 17  3  1  0  0  0  0
 17 26  1  0  0  0  0
 17 27  1  0  0  0  0
M  CHG  1  16  -1
M  END
>  <Mol_ID>
1672

>  <Formula>
C7H10N3NaO6S

>  <MolWeight>
287.22557

>  <Cat>
S3732

>  <Name>
Avibactam sodium

>  <Synonyms>
AVE-1330A, NXL104

>  <Target>
¦Â-lactamase

>  <Form>
sodium salt

>  <CAS>
1192491-61-4

>  <URL>
http://selleckchem.com/products/avibactam-sodium.html

$$$$
