S3742 Cholic acid.cdx
 OpenBabel08302519503D

 69 72  0  0  0  0  0  0  0  0999 V2000
   -2.7018    2.3257    0.6281 C   0  0  0  0  0  0  0  0  0  0  0  0
   -4.1572    2.3273    0.1076 C   0  0  0  0  0  0  0  0  0  0  0  0
   -4.7588    0.9334    0.2574 C   0  0  1  0  0  0  0  0  0  0  0  0
   -6.1359    0.9307   -0.0626 O   0  0  0  0  0  0  0  0  0  0  0  0
   -3.9756   -0.0652   -0.6017 C   0  0  0  0  0  0  0  0  0  0  0  0
   -2.5554   -0.0926   -0.0293 C   0  0  1  0  0  0  0  0  0  0  0  0
   -1.7308   -1.3200   -0.3882 C   0  0  0  0  0  0  0  0  0  0  0  0
   -0.5935   -1.4670    0.6756 C   0  0  1  0  0  0  0  0  0  0  0  0
   -0.0204   -2.7500    0.5120 O   0  0  0  0  0  0  0  0  0  0  0  0
    0.3962   -0.2917    0.4690 C   0  0  3  0  0  0  0  0  0  0  0  0
    1.9774   -0.3217    1.0164 C   0  0  3  0  0  0  0  0  0  0  0  0
    2.8328   -1.5772    0.6971 C   0  0  0  0  0  0  0  0  0  0  0  0
    3.9095   -1.1168   -0.2884 C   0  0  0  0  0  0  0  0  0  0  0  0
    3.2242    0.0792   -1.0512 C   0  0  3  0  0  0  0  0  0  0  0  0
    2.2660   -0.6080   -2.1060 C   0  0  3  0  0  0  0  0  0  0  0  0
    1.1552    0.2739   -2.6820 C   0  0  0  0  0  0  0  0  0  0  0  0
    1.1450    1.0173   -4.0069 C   0  0  0  0  0  0  0  0  0  0  0  0
    1.3736    2.5042   -3.8782 C   0  0  0  0  0  0  0  0  0  0  0  0
    2.8846   -1.5543   -3.1397 C   0  0  0  0  0  0  0  0  0  0  0  0
    2.7542    0.8816    0.2932 C   0  0  3  0  0  0  0  0  0  0  0  0
    4.1625    1.5363    0.6812 C   0  0  0  0  0  0  0  0  0  0  0  0
    1.9067    2.1469    0.6848 C   0  0  3  0  0  0  0  0  0  0  0  0
    1.8637    2.2203    2.1638 O   0  0  0  0  0  0  0  0  0  0  0  0
    0.4914    2.2931    0.2417 C   0  0  0  0  0  0  0  0  0  0  0  0
   -0.3822    1.0991    0.6211 C   0  0  3  0  0  0  0  0  0  0  0  0
   -1.8029    1.2678   -0.1230 C   0  0  3  0  0  0  0  0  0  0  0  0
   -1.6851    1.8926   -1.5485 C   0  0  0  0  0  0  0  0  0  0  0  0
    0.7077    3.3830   -4.4208 O   0  0  0  0  0  0  0  0  0  0  0  0
    2.4326    2.8369   -3.1247 O   0  0  0  0  0  0  0  0  0  0  0  0
   -2.2896    3.3344    0.5330 H   0  0  0  0  0  0  0  0  0  0  0  0
   -2.7153    2.0985    1.6993 H   0  0  0  0  0  0  0  0  0  0  0  0
   -4.7589    3.0681    0.6443 H   0  0  0  0  0  0  0  0  0  0  0  0
   -4.2112    2.6362   -0.9462 H   0  0  0  0  0  0  0  0  0  0  0  0
   -4.6815    0.6274    1.3085 H   0  0  0  0  0  0  0  0  0  0  0  0
   -6.5944    1.2809    0.7213 H   0  0  0  0  0  0  0  0  0  0  0  0
   -4.4467   -1.0544   -0.5250 H   0  0  0  0  0  0  0  0  0  0  0  0
   -4.0113    0.1966   -1.6664 H   0  0  0  0  0  0  0  0  0  0  0  0
   -2.7261   -0.2366    1.0441 H   0  0  0  0  0  0  0  0  0  0  0  0
   -2.3602   -2.2206   -0.3945 H   0  0  0  0  0  0  0  0  0  0  0  0
   -1.3196   -1.2568   -1.4042 H   0  0  0  0  0  0  0  0  0  0  0  0
   -1.0185   -1.4310    1.6871 H   0  0  0  0  0  0  0  0  0  0  0  0
   -0.7399   -3.4043    0.6197 H   0  0  0  0  0  0  0  0  0  0  0  0
    0.5212   -0.3574   -0.5823 H   0  0  0  0  0  0  0  0  0  0  0  0
    1.9664   -0.2325    2.1114 H   0  0  0  0  0  0  0  0  0  0  0  0
    3.3163   -1.9791    1.5977 H   0  0  0  0  0  0  0  0  0  0  0  0
    2.2648   -2.4005    0.2640 H   0  0  0  0  0  0  0  0  0  0  0  0
    4.7954   -0.8300    0.2853 H   0  0  0  0  0  0  0  0  0  0  0  0
    4.2884   -1.9250   -0.9143 H   0  0  0  0  0  0  0  0  0  0  0  0
    3.9763    0.6492   -1.6116 H   0  0  0  0  0  0  0  0  0  0  0  0
    1.7283   -1.3603   -1.5228 H   0  0  0  0  0  0  0  0  0  0  0  0
    0.2870   -0.3973   -2.7435 H   0  0  0  0  0  0  0  0  0  0  0  0
    0.9520    1.0074   -1.9220 H   0  0  0  0  0  0  0  0  0  0  0  0
    1.7880    0.5894   -4.7647 H   0  0  0  0  0  0  0  0  0  0  0  0
    0.1034    0.9487   -4.3710 H   0  0  0  0  0  0  0  0  0  0  0  0
    3.5715   -2.2875   -2.6988 H   0  0  0  0  0  0  0  0  0  0  0  0
    2.0751   -2.1604   -3.5804 H   0  0  0  0  0  0  0  0  0  0  0  0
    3.4076   -1.0213   -3.9159 H   0  0  0  0  0  0  0  0  0  0  0  0
    4.2941    2.3957   -0.0079 H   0  0  0  0  0  0  0  0  0  0  0  0
    4.2287    1.9451    1.6908 H   0  0  0  0  0  0  0  0  0  0  0  0
    5.0796    0.9793    0.4841 H   0  0  0  0  0  0  0  0  0  0  0  0
    2.4053    3.0625    0.3822 H   0  0  0  0  0  0  0  0  0  0  0  0
    1.2466    1.5433    2.5138 H   0  0  0  0  0  0  0  0  0  0  0  0
    0.0677    3.1821    0.7223 H   0  0  0  0  0  0  0  0  0  0  0  0
    0.5428    2.5041   -0.8110 H   0  0  0  0  0  0  0  0  0  0  0  0
   -0.6115    1.1541    1.6956 H   0  0  0  0  0  0  0  0  0  0  0  0
   -1.4116    2.9609   -1.4836 H   0  0  0  0  0  0  0  0  0  0  0  0
   -0.9513    1.4199   -2.1801 H   0  0  0  0  0  0  0  0  0  0  0  0
   -2.6130    1.8785   -2.1244 H   0  0  0  0  0  0  0  0  0  0  0  0
    2.4546    3.8169   -3.1856 H   0  0  0  0  0  0  0  0  0  0  0  0
  1  2  1  0  0  0  0
  1 26  1  0  0  0  0
  1 30  1  0  0  0  0
  1 31  1  0  0  0  0
  2  3  1  0  0  0  0
  2 32  1  0  0  0  0
  2 33  1  0  0  0  0
  3  5  1  0  0  0  0
  3 34  1  1  0  0  0
  3  4  1  0  0  0  0
  4 35  1  0  0  0  0
  5 36  1  0  0  0  0
  5 37  1  0  0  0  0
  6  5  1  0  0  0  0
  6  7  1  0  0  0  0
  6 26  1  0  0  0  0
  6 38  1  1  0  0  0
  7  8  1  0  0  0  0
  7 39  1  0  0  0  0
  7 40  1  0  0  0  0
  8 41  1  1  0  0  0
  8  9  1  0  0  0  0
  9 42  1  0  0  0  0
 10  8  1  0  0  0  0
 10 11  1  0  0  0  0
 10 25  1  0  0  0  0
 10 43  1  0  0  0  0
 11 12  1  0  0  0  0
 11 20  1  0  0  0  0
 11 44  1  0  0  0  0
 12 13  1  0  0  0  0
 12 45  1  0  0  0  0
 12 46  1  0  0  0  0
 13 47  1  0  0  0  0
 13 48  1  0  0  0  0
 14 13  1  0  0  0  0
 14 15  1  0  0  0  0
 14 20  1  0  0  0  0
 14 49  1  0  0  0  0
 15 16  1  0  0  0  0
 15 19  1  0  0  0  0
 15 50  1  0  0  0  0
 16 17  1  0  0  0  0
 16 51  1  0  0  0  0
 16 52  1  0  0  0  0
 17 18  1  0  0  0  0
 17 53  1  0  0  0  0
 17 54  1  0  0  0  0
 18 28  2  0  0  0  0
 18 29  1  0  0  0  0
 19 55  1  0  0  0  0
 19 56  1  0  0  0  0
 19 57  1  0  0  0  0
 20 21  1  0  0  0  0
 20 22  1  0  0  0  0
 21 58  1  0  0  0  0
 21 59  1  0  0  0  0
 21 60  1  0  0  0  0
 22 23  1  0  0  0  0
 22 24  1  0  0  0  0
 22 61  1  0  0  0  0
 23 62  1  0  0  0  0
 24 63  1  0  0  0  0
 24 64  1  0  0  0  0
 25 24  1  0  0  0  0
 25 26  1  0  0  0  0
 25 65  1  0  0  0  0
 26 27  1  0  0  0  0
 27 66  1  0  0  0  0
 27 67  1  0  0  0  0
 27 68  1  0  0  0  0
 29 69  1  0  0  0  0
M  END
>  <Mol_ID>
1712

>  <Formula>
C24H40O5

>  <MolWeight>
408.5714

>  <Cat>
S3742

>  <Name>
Cholic acid

>  <Synonyms>
N/A

>  <Target>
Others

>  <Form>
free base

>  <CAS>
81-25-4

>  <URL>
http://selleckchem.com/products/cholic-acid.html

$$$$
