S3741 Benznidazole.cdx
 OpenBabel08302519503D

 31 32  0  0  0  0  0  0  0  0999 V2000
    0.1186   -1.6162    0.4456 N   0  0  0  0  0  0  0  0  0  0  0  0
    1.1304   -1.7057    1.3622 C   0  0  0  0  0  0  0  0  0  0  0  0
    0.0107   -0.2843    0.1180 C   0  0  0  0  0  0  0  0  0  0  0  0
   -0.7596   -2.6648   -0.0388 C   0  0  0  0  0  0  0  0  0  0  0  0
    1.6898   -0.5406    1.6161 N   0  0  0  0  0  0  0  0  0  0  0  0
    1.5220   -2.9248    1.9985 N   0  3  0  0  0  0  0  0  0  0  0  0
    1.0026    0.3512    0.8319 C   0  0  0  0  0  0  0  0  0  0  0  0
   -0.2705   -3.2490   -1.3483 C   0  0  0  0  0  0  0  0  0  0  0  0
    1.6907   -3.9093    1.2643 O   0  0  0  0  0  0  0  0  0  0  0  0
    1.5979   -2.9214    3.2331 O   0  5  0  0  0  0  0  0  0  0  0  0
    0.5622   -4.3344   -1.2220 N   0  0  0  0  0  0  0  0  0  0  0  0
   -0.6047   -2.7699   -2.4278 O   0  0  0  0  0  0  0  0  0  0  0  0
    1.1448   -5.0074   -2.3588 C   0  0  0  0  0  0  0  0  0  0  0  0
    0.7288   -6.4535   -2.4008 C   0  0  0  0  0  0  0  0  0  0  0  0
   -0.4264   -6.8325   -3.0995 C   0  0  0  0  0  0  0  0  0  0  0  0
    1.4746   -7.4390   -1.7380 C   0  0  0  0  0  0  0  0  0  0  0  0
   -0.8038   -8.1744   -3.1710 C   0  0  0  0  0  0  0  0  0  0  0  0
    1.0940   -8.7811   -1.8091 C   0  0  0  0  0  0  0  0  0  0  0  0
   -0.0397   -9.1487   -2.5319 C   0  0  0  0  0  0  0  0  0  0  0  0
   -0.7311    0.0872   -0.5775 H   0  0  0  0  0  0  0  0  0  0  0  0
   -0.8690   -3.4351    0.7315 H   0  0  0  0  0  0  0  0  0  0  0  0
   -1.7518   -2.2281   -0.1959 H   0  0  0  0  0  0  0  0  0  0  0  0
    1.2505    1.4063    0.8297 H   0  0  0  0  0  0  0  0  0  0  0  0
    0.9215   -4.5995   -0.3077 H   0  0  0  0  0  0  0  0  0  0  0  0
    0.8735   -4.5069   -3.2955 H   0  0  0  0  0  0  0  0  0  0  0  0
    2.2339   -4.9297   -2.2618 H   0  0  0  0  0  0  0  0  0  0  0  0
   -1.0315   -6.0803   -3.6024 H   0  0  0  0  0  0  0  0  0  0  0  0
    2.3640   -7.1702   -1.1718 H   0  0  0  0  0  0  0  0  0  0  0  0
   -1.6911   -8.4592   -3.7306 H   0  0  0  0  0  0  0  0  0  0  0  0
    1.6857   -9.5416   -1.3056 H   0  0  0  0  0  0  0  0  0  0  0  0
   -0.3285  -10.1946   -2.5966 H   0  0  0  0  0  0  0  0  0  0  0  0
  1  2  1  0  0  0  0
  1  3  1  0  0  0  0
  1  4  1  0  0  0  0
  2  5  2  0  0  0  0
  2  6  1  0  0  0  0
  3  7  2  0  0  0  0
  3 20  1  0  0  0  0
  4  8  1  0  0  0  0
  4 21  1  0  0  0  0
  4 22  1  0  0  0  0
  5  7  1  0  0  0  0
  6  9  2  0  0  0  0
  6 10  1  0  0  0  0
  7 23  1  0  0  0  0
  8 11  1  0  0  0  0
  8 12  2  0  0  0  0
 11 13  1  0  0  0  0
 11 24  1  0  0  0  0
 13 14  1  0  0  0  0
 13 25  1  0  0  0  0
 13 26  1  0  0  0  0
 14 15  2  0  0  0  0
 14 16  1  0  0  0  0
 15 17  1  0  0  0  0
 15 27  1  0  0  0  0
 16 18  2  0  0  0  0
 16 28  1  0  0  0  0
 17 19  2  0  0  0  0
 17 29  1  0  0  0  0
 18 19  1  0  0  0  0
 18 30  1  0  0  0  0
 19 31  1  0  0  0  0
M  CHG  2   6   1  10  -1
M  END
>  <Mol_ID>
1744

>  <Formula>
C12H12N4O3

>  <MolWeight>
260.24868

>  <Cat>
S3741

>  <Name>
Benznidazole

>  <Synonyms>
Radanil

>  <Target>
Parasite

>  <Form>
free base

>  <CAS>
22994-85-0

>  <URL>
http://selleckchem.com/products/benznidazole.html

$$$$
