S3756 Methyl salicylate.cdx
 OpenBabel08302519563D

 19 19  0  0  0  0  0  0  0  0999 V2000
    0.1760   -1.2111   -0.0058 C   0  0  0  0  0  0  0  0  0  0  0  0
    0.9311   -0.0268    0.0093 C   0  0  0  0  0  0  0  0  0  0  0  0
   -1.2245   -1.1207   -0.0226 C   0  0  0  0  0  0  0  0  0  0  0  0
    0.8830   -2.5169   -0.0019 C   0  0  0  0  0  0  0  0  0  0  0  0
    0.3046    1.2191    0.0097 C   0  0  0  0  0  0  0  0  0  0  0  0
    2.3020   -0.0026    0.0254 O   0  0  0  0  0  0  0  0  0  0  0  0
   -1.8498    0.1314   -0.0222 C   0  0  0  0  0  0  0  0  0  0  0  0
    0.0334   -3.5721   -0.0090 O   0  0  0  0  0  0  0  0  0  0  0  0
    2.1063   -2.5872    0.0086 O   0  0  0  0  0  0  0  0  0  0  0  0
   -1.0859    1.2986   -0.0056 C   0  0  0  0  0  0  0  0  0  0  0  0
    0.7017   -4.8370    0.0008 C   0  0  0  0  0  0  0  0  0  0  0  0
   -1.8435   -2.0150   -0.0348 H   0  0  0  0  0  0  0  0  0  0  0  0
    0.9057    2.1245    0.0232 H   0  0  0  0  0  0  0  0  0  0  0  0
    2.6318   -0.9284    0.0220 H   0  0  0  0  0  0  0  0  0  0  0  0
   -2.9358    0.1987   -0.0341 H   0  0  0  0  0  0  0  0  0  0  0  0
   -1.5713    2.2717   -0.0039 H   0  0  0  0  0  0  0  0  0  0  0  0
    1.3408   -4.9409   -0.8823 H   0  0  0  0  0  0  0  0  0  0  0  0
    1.2905   -4.9504    0.9169 H   0  0  0  0  0  0  0  0  0  0  0  0
   -0.0538   -5.6269   -0.0250 H   0  0  0  0  0  0  0  0  0  0  0  0
  1  2  2  0  0  0  0
  1  3  1  0  0  0  0
  1  4  1  0  0  0  0
  2  5  1  0  0  0  0
  2  6  1  0  0  0  0
  3  7  2  0  0  0  0
  3 12  1  0  0  0  0
  4  8  1  0  0  0  0
  4  9  2  0  0  0  0
  5 10  2  0  0  0  0
  5 13  1  0  0  0  0
  6 14  1  0  0  0  0
  7 10  1  0  0  0  0
  7 15  1  0  0  0  0
  8 11  1  0  0  0  0
 10 16  1  0  0  0  0
 11 17  1  0  0  0  0
 11 18  1  0  0  0  0
 11 19  1  0  0  0  0
M  END
>  <Mol_ID>
2225

>  <Formula>
C8H8O3

>  <MolWeight>
152.14732

>  <Cat>
S3756

>  <Name>
Methyl salicylate

>  <Synonyms>
2-Carbomethoxyphenol, Betula oil, Gaultheria oil, Methyl 2-hydroxybenzoate, Natural wintergreen oil

>  <Target>
TRP Channel

>  <Form>
free base

>  <CAS>
119-36-8

>  <URL>
http://selleckchem.com/products/methyl-salicylate.html

$$$$
