S3759 Norcantharidin.cdx
 OpenBabel08302519513D

 20 22  0  0  0  0  0  0  0  0999 V2000
   -2.2788    0.6990    0.3442 C   0  0  0  0  0  0  0  0  0  0  0  0
   -0.8609    0.8388    0.8842 C   0  0  3  0  0  0  0  0  0  0  0  0
    0.1680    0.7539   -0.2453 C   0  0  3  0  0  0  0  0  0  0  0  0
    0.2420   -0.7304   -0.5325 C   0  0  3  0  0  0  0  0  0  0  0  0
   -2.2341   -0.7095   -0.2603 C   0  0  0  0  0  0  0  0  0  0  0  0
   -0.9112   -1.2597    0.2993 C   0  0  3  0  0  0  0  0  0  0  0  0
   -0.7427   -0.4678    1.5022 O   0  0  0  0  0  0  0  0  0  0  0  0
    1.5390    1.0904    0.2246 C   0  0  0  0  0  0  0  0  0  0  0  0
    2.2814   -0.0299    0.3759 O   0  0  0  0  0  0  0  0  0  0  0  0
    1.5677   -1.1261    0.0311 C   0  0  0  0  0  0  0  0  0  0  0  0
    1.9762   -2.2755    0.1216 O   0  0  0  0  0  0  0  0  0  0  0  0
    1.9394    2.2203    0.4318 O   0  0  0  0  0  0  0  0  0  0  0  0
   -2.5662    1.4761   -0.3675 H   0  0  0  0  0  0  0  0  0  0  0  0
   -2.9946    0.7021    1.1768 H   0  0  0  0  0  0  0  0  0  0  0  0
   -0.7175    1.6433    1.6094 H   0  0  0  0  0  0  0  0  0  0  0  0
   -0.0864    1.3497   -1.1273 H   0  0  0  0  0  0  0  0  0  0  0  0
    0.1975   -0.9784   -1.5962 H   0  0  0  0  0  0  0  0  0  0  0  0
   -3.0965   -1.2969    0.0684 H   0  0  0  0  0  0  0  0  0  0  0  0
   -2.2372   -0.6849   -1.3562 H   0  0  0  0  0  0  0  0  0  0  0  0
   -0.9014   -2.3313    0.5093 H   0  0  0  0  0  0  0  0  0  0  0  0
  1  2  1  0  0  0  0
  1  5  1  0  0  0  0
  1 13  1  0  0  0  0
  1 14  1  0  0  0  0
  2  3  1  0  0  0  0
  2  7  1  0  0  0  0
  2 15  1  0  0  0  0
  3  4  1  0  0  0  0
  3  8  1  0  0  0  0
  3 16  1  0  0  0  0
  4  6  1  0  0  0  0
  4 17  1  0  0  0  0
  5  6  1  0  0  0  0
  5 18  1  0  0  0  0
  5 19  1  0  0  0  0
  6  7  1  0  0  0  0
  6 20  1  0  0  0  0
  8  9  1  0  0  0  0
  8 12  2  0  0  0  0
  9 10  1  0  0  0  0
 10  4  1  0  0  0  0
 10 11  2  0  0  0  0
M  END
>  <Mol_ID>
1798

>  <Formula>
C8H8O4

>  <MolWeight>
168.14672

>  <Cat>
S3759

>  <Name>
Norcantharidin

>  <Synonyms>
Endothall anhydride

>  <Target>
c-Met,EGFR

>  <Form>
free base

>  <CAS>
29745-04-8

>  <URL>
http://selleckchem.com/products/norcantharidin.html

$$$$
