S3750 Sodium benzoate.cdx
 OpenBabel08302519503D

 14 14  0  0  0  0  0  0  0  0999 V2000
    1.3948   -0.2492    0.0620 C   0  0  0  0  0  0  0  0  0  0  0  0
    0.4858   -1.3195    0.0299 C   0  0  0  0  0  0  0  0  0  0  0  0
    0.8801    1.0578    0.0442 C   0  0  0  0  0  0  0  0  0  0  0  0
    2.8906   -0.4972    0.1199 C   0  0  0  0  0  0  0  0  0  0  0  0
   -0.8923   -1.0923   -0.0110 C   0  0  0  0  0  0  0  0  0  0  0  0
   -0.4977    1.2877    0.0050 C   0  0  0  0  0  0  0  0  0  0  0  0
    3.6478    0.5242    0.1483 O   0  0  0  0  0  0  0  0  0  0  0  0
    3.2775   -1.7092    0.1380 O   0  5  0  0  0  0  0  0  0  0  0  0
   -1.3835    0.2119   -0.0203 C   0  0  0  0  0  0  0  0  0  0  0  0
    0.8702   -2.3385    0.0398 H   0  0  0  0  0  0  0  0  0  0  0  0
    1.5727    1.8979    0.0644 H   0  0  0  0  0  0  0  0  0  0  0  0
   -1.5740   -1.9366   -0.0328 H   0  0  0  0  0  0  0  0  0  0  0  0
   -0.8704    2.3069   -0.0031 H   0  0  0  0  0  0  0  0  0  0  0  0
   -2.4536    0.3897   -0.0469 H   0  0  0  0  0  0  0  0  0  0  0  0
  1  2  2  0  0  0  0
  1  3  1  0  0  0  0
  1  4  1  0  0  0  0
  2  5  1  0  0  0  0
  2 10  1  0  0  0  0
  3  6  2  0  0  0  0
  3 11  1  0  0  0  0
  4  7  2  0  0  0  0
  4  8  1  0  0  0  0
  5  9  2  0  0  0  0
  5 12  1  0  0  0  0
  6  9  1  0  0  0  0
  6 13  1  0  0  0  0
  9 14  1  0  0  0  0
M  CHG  1   8  -1
M  END
>  <Mol_ID>
1737

>  <Formula>
C7H5NaO2

>  <MolWeight>
144.10317

>  <Cat>
S3750

>  <Name>
Sodium benzoate

>  <Synonyms>
Benzoic acid sodium salt

>  <Target>
Others

>  <Form>
sodium salt

>  <CAS>
532-32-1

>  <URL>
http://selleckchem.com/products/sodium-benzoate.html

$$$$
