S3762 methylnonylketone.cdx
 OpenBabel08302519563D

 34 33  0  0  0  0  0  0  0  0999 V2000
    0.9952   -0.0391   -0.0366 C   0  0  0  0  0  0  0  0  0  0  0  0
    0.5319   -0.6337    1.2960 C   0  0  0  0  0  0  0  0  0  0  0  0
    0.4874   -0.8158   -1.2596 C   0  0  0  0  0  0  0  0  0  0  0  0
    1.0650    0.0970    2.5347 C   0  0  0  0  0  0  0  0  0  0  0  0
   -1.0360   -0.8247   -1.4027 C   0  0  0  0  0  0  0  0  0  0  0  0
    0.6920    1.5790    2.6712 C   0  0  0  0  0  0  0  0  0  0  0  0
   -1.4936   -1.5386   -2.6638 C   0  0  0  0  0  0  0  0  0  0  0  0
   -0.8150    1.8364    2.7323 C   0  0  0  0  0  0  0  0  0  0  0  0
   -2.9829   -1.6444   -2.8816 C   0  0  0  0  0  0  0  0  0  0  0  0
   -0.7105   -2.0336   -3.4708 O   0  0  0  0  0  0  0  0  0  0  0  0
   -1.1227    3.3238    2.9318 C   0  0  0  0  0  0  0  0  0  0  0  0
   -2.6208    3.5847    2.9845 C   0  0  0  0  0  0  0  0  0  0  0  0
    2.0926   -0.0412   -0.0641 H   0  0  0  0  0  0  0  0  0  0  0  0
    0.6778    1.0061   -0.1223 H   0  0  0  0  0  0  0  0  0  0  0  0
   -0.5602   -0.6641    1.3435 H   0  0  0  0  0  0  0  0  0  0  0  0
    0.8724   -1.6761    1.3482 H   0  0  0  0  0  0  0  0  0  0  0  0
    0.9289   -0.3656   -2.1585 H   0  0  0  0  0  0  0  0  0  0  0  0
    0.8593   -1.8476   -1.2199 H   0  0  0  0  0  0  0  0  0  0  0  0
    0.7010   -0.4359    3.4233 H   0  0  0  0  0  0  0  0  0  0  0  0
    2.1580    0.0128    2.5536 H   0  0  0  0  0  0  0  0  0  0  0  0
   -1.4969   -1.3413   -0.5555 H   0  0  0  0  0  0  0  0  0  0  0  0
   -1.4141    0.2025   -1.4395 H   0  0  0  0  0  0  0  0  0  0  0  0
    1.1520    1.9557    3.5933 H   0  0  0  0  0  0  0  0  0  0  0  0
    1.1376    2.1543    1.8507 H   0  0  0  0  0  0  0  0  0  0  0  0
   -1.2942    1.4943    1.8093 H   0  0  0  0  0  0  0  0  0  0  0  0
   -1.2510    1.2615    3.5591 H   0  0  0  0  0  0  0  0  0  0  0  0
   -3.2283   -1.2750   -3.8806 H   0  0  0  0  0  0  0  0  0  0  0  0
   -3.2881   -2.6890   -2.7793 H   0  0  0  0  0  0  0  0  0  0  0  0
   -3.5233   -1.0436   -2.1467 H   0  0  0  0  0  0  0  0  0  0  0  0
   -0.6651    3.6782    3.8632 H   0  0  0  0  0  0  0  0  0  0  0  0
   -0.6859    3.9086    2.1136 H   0  0  0  0  0  0  0  0  0  0  0  0
   -3.0939    3.0047    3.7832 H   0  0  0  0  0  0  0  0  0  0  0  0
   -2.8163    4.6452    3.1746 H   0  0  0  0  0  0  0  0  0  0  0  0
   -3.0983    3.3176    2.0365 H   0  0  0  0  0  0  0  0  0  0  0  0
  1  2  1  0  0  0  0
  1  3  1  0  0  0  0
  1 13  1  0  0  0  0
  1 14  1  0  0  0  0
  2  4  1  0  0  0  0
  2 15  1  0  0  0  0
  2 16  1  0  0  0  0
  3  5  1  0  0  0  0
  3 17  1  0  0  0  0
  3 18  1  0  0  0  0
  4  6  1  0  0  0  0
  4 19  1  0  0  0  0
  4 20  1  0  0  0  0
  5  7  1  0  0  0  0
  5 21  1  0  0  0  0
  5 22  1  0  0  0  0
  6  8  1  0  0  0  0
  6 23  1  0  0  0  0
  6 24  1  0  0  0  0
  7  9  1  0  0  0  0
  7 10  2  0  0  0  0
  8 11  1  0  0  0  0
  8 25  1  0  0  0  0
  8 26  1  0  0  0  0
  9 27  1  0  0  0  0
  9 28  1  0  0  0  0
  9 29  1  0  0  0  0
 11 12  1  0  0  0  0
 11 30  1  0  0  0  0
 11 31  1  0  0  0  0
 12 32  1  0  0  0  0
 12 33  1  0  0  0  0
 12 34  1  0  0  0  0
M  END
>  <Mol_ID>
2234

>  <Formula>
C11H22O

>  <MolWeight>
170.29178

>  <Cat>
S3762

>  <Name>
Methylnonylketone

>  <Synonyms>
2-Undecanone, IBI-246

>  <Target>
Others

>  <Form>
free base

>  <CAS>
112-12-9

>  <URL>
http://selleckchem.com/products/methylnonylketone.html

$$$$
