S3778 Patchouli alcohol.cdx
 OpenBabel08302519513D

 42 44  0  0  0  0  0  0  0  0999 V2000
    0.6790   -6.0837   -1.0485 C   0  0  2  0  0  0  0  0  0  0  0  0
   -0.2750   -6.6647    0.0670 C   0  0  2  0  0  0  0  0  0  0  0  0
    1.1213   -4.6857   -0.5036 C   0  0  1  0  0  0  0  0  0  0  0  0
   -0.1591   -5.9863   -2.3740 C   0  0  0  0  0  0  0  0  0  0  0  0
   -1.5085   -5.6219    0.3008 C   0  0  0  0  0  0  0  0  0  0  0  0
    0.5525   -7.0240    1.3012 C   0  0  0  0  0  0  0  0  0  0  0  0
   -0.7916   -7.9208   -0.4083 O   0  0  0  0  0  0  0  0  0  0  0  0
   -0.0671   -3.7265   -0.6815 C   0  0  0  0  0  0  0  0  0  0  0  0
    1.7892   -4.7823    0.9422 C   0  0  2  0  0  0  0  0  0  0  0  0
   -1.4192   -5.1579   -2.1947 C   0  0  0  0  0  0  0  0  0  0  0  0
   -1.4035   -4.5178   -0.8115 C   0  0  1  0  0  0  0  0  0  0  0  0
   -1.5896   -4.8424    1.6350 C   0  0  0  0  0  0  0  0  0  0  0  0
   -2.8933   -6.3347    0.2355 C   0  0  0  0  0  0  0  0  0  0  0  0
    1.2506   -5.8411    1.9319 C   0  0  0  0  0  0  0  0  0  0  0  0
    1.9357   -3.4524    1.7011 C   0  0  0  0  0  0  0  0  0  0  0  0
    1.9284   -6.9030   -1.4332 C   0  0  0  0  0  0  0  0  0  0  0  0
    1.9245   -4.2953   -1.1469 H   0  0  0  0  0  0  0  0  0  0  0  0
   -0.4443   -6.9932   -2.7104 H   0  0  0  0  0  0  0  0  0  0  0  0
    0.4480   -5.5663   -3.1821 H   0  0  0  0  0  0  0  0  0  0  0  0
   -0.0596   -7.5583    2.0385 H   0  0  0  0  0  0  0  0  0  0  0  0
    1.3176   -7.7650    1.0243 H   0  0  0  0  0  0  0  0  0  0  0  0
   -0.0495   -8.5296   -0.5600 H   0  0  0  0  0  0  0  0  0  0  0  0
   -0.1186   -2.9571    0.0797 H   0  0  0  0  0  0  0  0  0  0  0  0
    0.0934   -3.1748   -1.6215 H   0  0  0  0  0  0  0  0  0  0  0  0
    2.8205   -5.1081    0.7455 H   0  0  0  0  0  0  0  0  0  0  0  0
   -1.4661   -4.3915   -2.9790 H   0  0  0  0  0  0  0  0  0  0  0  0
   -2.3128   -5.7785   -2.3320 H   0  0  0  0  0  0  0  0  0  0  0  0
   -2.2367   -3.8103   -0.7427 H   0  0  0  0  0  0  0  0  0  0  0  0
   -2.5351   -4.2695    1.6824 H   0  0  0  0  0  0  0  0  0  0  0  0
   -1.5935   -5.5065    2.5019 H   0  0  0  0  0  0  0  0  0  0  0  0
   -0.8178   -4.0922    1.7691 H   0  0  0  0  0  0  0  0  0  0  0  0
   -3.6720   -5.6404   -0.0995 H   0  0  0  0  0  0  0  0  0  0  0  0
   -3.1911   -6.6937    1.2288 H   0  0  0  0  0  0  0  0  0  0  0  0
   -2.9280   -7.1933   -0.4371 H   0  0  0  0  0  0  0  0  0  0  0  0
    2.0856   -6.2171    2.5394 H   0  0  0  0  0  0  0  0  0  0  0  0
    0.5921   -5.3908    2.6780 H   0  0  0  0  0  0  0  0  0  0  0  0
    0.9736   -2.9739    1.8997 H   0  0  0  0  0  0  0  0  0  0  0  0
    2.3950   -3.6225    2.6865 H   0  0  0  0  0  0  0  0  0  0  0  0
    2.5628   -2.7478    1.1479 H   0  0  0  0  0  0  0  0  0  0  0  0
    2.6490   -7.0058   -0.6193 H   0  0  0  0  0  0  0  0  0  0  0  0
    1.6691   -7.9027   -1.7955 H   0  0  0  0  0  0  0  0  0  0  0  0
    2.4624   -6.4016   -2.2541 H   0  0  0  0  0  0  0  0  0  0  0  0
  1  2  1  0  0  0  0
  1  3  1  0  0  0  0
  1  4  1  0  0  0  0
  1 16  1  6  0  0  0
  2  5  1  0  0  0  0
  2  6  1  0  0  0  0
  2  7  1  6  0  0  0
  3  8  1  0  0  0  0
  3  9  1  0  0  0  0
  3 17  1  6  0  0  0
  4 10  1  0  0  0  0
  4 18  1  0  0  0  0
  4 19  1  0  0  0  0
  5 11  1  0  0  0  0
  5 12  1  0  0  0  0
  5 13  1  0  0  0  0
  6 14  1  0  0  0  0
  6 20  1  0  0  0  0
  6 21  1  0  0  0  0
  7 22  1  0  0  0  0
  8 23  1  0  0  0  0
  8 24  1  0  0  0  0
  9 15  1  0  0  0  0
  9 14  1  0  0  0  0
  9 25  1  6  0  0  0
 10 11  1  0  0  0  0
 10 26  1  0  0  0  0
 10 27  1  0  0  0  0
 11  8  1  0  0  0  0
 11 28  1  1  0  0  0
 12 29  1  0  0  0  0
 12 30  1  0  0  0  0
 12 31  1  0  0  0  0
 13 32  1  0  0  0  0
 13 33  1  0  0  0  0
 13 34  1  0  0  0  0
 14 35  1  0  0  0  0
 14 36  1  0  0  0  0
 15 37  1  0  0  0  0
 15 38  1  0  0  0  0
 15 39  1  0  0  0  0
 16 40  1  0  0  0  0
 16 41  1  0  0  0  0
 16 42  1  0  0  0  0
M  END
>  <Mol_ID>
1854

>  <Formula>
C15H26O

>  <MolWeight>
222.36634

>  <Cat>
S3778

>  <Name>
Patchouli alcohol

>  <Synonyms>
(-)-Patchouli Alcohol, Patchoulol, Patchouli camphor

>  <Target>
Fungal

>  <Form>
free base

>  <CAS>
5986-55-0

>  <URL>
http://selleckchem.com/products/patchouli-alcohol.html

$$$$
