S3775 Ligustrazine hydrochloride.cdx
 OpenBabel08302519513D

 22 22  0  0  0  0  0  0  0  0999 V2000
   -0.6593    1.2035   -0.0015 C   0  0  0  0  0  0  0  0  0  0  0  0
   -1.3624   -0.0031   -0.0037 C   0  0  0  0  0  0  0  0  0  0  0  0
    0.7020    1.2236   -0.0032 N   0  0  0  0  0  0  0  0  0  0  0  0
   -1.2962    2.5592    0.0033 C   0  0  0  0  0  0  0  0  0  0  0  0
   -0.7029   -1.1960   -0.0031 N   0  0  0  0  0  0  0  0  0  0  0  0
   -2.8541   -0.1216   -0.0077 C   0  0  0  0  0  0  0  0  0  0  0  0
    1.3535    0.0325   -0.0050 C   0  0  0  0  0  0  0  0  0  0  0  0
    0.6544   -1.1705   -0.0022 C   0  0  0  0  0  0  0  0  0  0  0  0
    2.8505    0.1148   -0.0089 C   0  0  0  0  0  0  0  0  0  0  0  0
    1.3487   -2.4977    0.0021 C   0  0  0  0  0  0  0  0  0  0  0  0
   -0.9734    3.1112    0.8934 H   0  0  0  0  0  0  0  0  0  0  0  0
   -0.9775    3.1161   -0.8844 H   0  0  0  0  0  0  0  0  0  0  0  0
   -2.3844    2.5494    0.0067 H   0  0  0  0  0  0  0  0  0  0  0  0
   -3.1752   -0.6738   -0.8970 H   0  0  0  0  0  0  0  0  0  0  0  0
   -3.1808   -0.6709    0.8811 H   0  0  0  0  0  0  0  0  0  0  0  0
   -3.3820    0.8310   -0.0117 H   0  0  0  0  0  0  0  0  0  0  0  0
    3.1879    0.6529   -0.8998 H   0  0  0  0  0  0  0  0  0  0  0  0
    3.1935    0.6523    0.8801 H   0  0  0  0  0  0  0  0  0  0  0  0
    3.3376   -0.8647   -0.0112 H   0  0  0  0  0  0  0  0  0  0  0  0
    1.9724   -2.6042   -0.8910 H   0  0  0  0  0  0  0  0  0  0  0  0
    1.9726   -2.5976    0.8959 H   0  0  0  0  0  0  0  0  0  0  0  0
    0.6262   -3.3208    0.0054 H   0  0  0  0  0  0  0  0  0  0  0  0
  1  2  2  0  0  0  0
  1  3  1  0  0  0  0
  1  4  1  0  0  0  0
  2  5  1  0  0  0  0
  2  6  1  0  0  0  0
  3  7  2  0  0  0  0
  4 11  1  0  0  0  0
  4 12  1  0  0  0  0
  4 13  1  0  0  0  0
  5  8  2  0  0  0  0
  6 14  1  0  0  0  0
  6 15  1  0  0  0  0
  6 16  1  0  0  0  0
  7  9  1  0  0  0  0
  7  8  1  0  0  0  0
  8 10  1  0  0  0  0
  9 17  1  0  0  0  0
  9 18  1  0  0  0  0
  9 19  1  0  0  0  0
 10 20  1  0  0  0  0
 10 21  1  0  0  0  0
 10 22  1  0  0  0  0
M  END
>  <Mol_ID>
1796

>  <Formula>
C8H13ClN2

>  <MolWeight>
172.65522

>  <Cat>
S3775

>  <Name>
Ligustrazine hydrochloride

>  <Synonyms>
Tetramethylpyrazine HCl, Tetrapyrazine HCl

>  <Target>
Immunology & Inflammation related

>  <Form>
hydrochloride

>  <CAS>
76494-51-4

>  <URL>
http://selleckchem.com/products/ligustrazine-hydrochloride.html

$$$$
