S3772 5-Hydroxymethylfurfural.cdx
 OpenBabel08302520013D

 15 15  0  0  0  0  0  0  0  0999 V2000
   -0.1049    1.1242   -0.0188 C   0  0  0  0  0  0  0  0  0  0  0  0
   -1.0000    0.0903   -0.0192 O   0  0  0  0  0  0  0  0  0  0  0  0
    1.1833    0.6331   -0.0208 C   0  0  0  0  0  0  0  0  0  0  0  0
   -0.6658    2.4955   -0.0155 C   0  0  0  0  0  0  0  0  0  0  0  0
   -0.2740   -1.0700   -0.0208 C   0  0  0  0  0  0  0  0  0  0  0  0
    1.0748   -0.7770   -0.0215 C   0  0  0  0  0  0  0  0  0  0  0  0
   -1.4277    2.6533    1.1740 O   0  0  0  0  0  0  0  0  0  0  0  0
   -0.9739   -2.3271   -0.0208 C   0  0  0  0  0  0  0  0  0  0  0  0
   -0.4392   -3.4328   -0.0250 O   0  0  0  0  0  0  0  0  0  0  0  0
    2.0898    1.2233   -0.0178 H   0  0  0  0  0  0  0  0  0  0  0  0
    0.1269    3.2492   -0.0198 H   0  0  0  0  0  0  0  0  0  0  0  0
   -1.3145    2.6623   -0.8802 H   0  0  0  0  0  0  0  0  0  0  0  0
    1.8760   -1.5041   -0.0202 H   0  0  0  0  0  0  0  0  0  0  0  0
   -2.0260    1.8866    1.2173 H   0  0  0  0  0  0  0  0  0  0  0  0
   -2.0742   -2.2474   -0.0179 H   0  0  0  0  0  0  0  0  0  0  0  0
  1  2  1  0  0  0  0
  1  3  2  0  0  0  0
  1  4  1  0  0  0  0
  2  5  1  0  0  0  0
  3  6  1  0  0  0  0
  3 10  1  0  0  0  0
  4  7  1  0  0  0  0
  4 11  1  0  0  0  0
  4 12  1  0  0  0  0
  5  8  1  0  0  0  0
  5  6  2  0  0  0  0
  6 13  1  0  0  0  0
  7 14  1  0  0  0  0
  8  9  2  0  0  0  0
  8 15  1  0  0  0  0
M  END
>  <Mol_ID>
2948

>  <Formula>
C6H6O3

>  <MolWeight>
126.11004

>  <Cat>
S3772

>  <Name>
5-Hydroxymethylfurfural

>  <Synonyms>
N/A

>  <Target>
Others

>  <Form>
free base

>  <CAS>
67-47-0

>  <URL>
http://selleckchem.com/products/5-hydroxymethylfurfural.html

$$$$
