S3784 Obacunone.cdx
 OpenBabel08302520012D

 63 68  0  0  0  0  0  0  0  0999 V2000
    8.1413    4.1628    0.0000 C   0  0  1  0  0  0  0  0  0  0  0  0
    6.9215    3.4726    0.0000 C   0  0  1  0  0  0  0  0  0  0  0  0
    9.3566    3.4726    0.0000 C   0  0  2  0  0  0  0  0  0  0  0  0
    8.1413    5.5723    0.0000 C   0  0  2  0  0  0  0  0  0  0  0  0
    8.1413    2.7532    0.0000 O   0  0  0  0  0  0  0  0  0  0  0  0
    5.7113    4.1870    0.0000 C   0  0  1  0  0  0  0  0  0  0  0  0
    6.9215    2.0824    0.0000 C   0  0  0  0  0  0  0  0  0  0  0  0
   10.5716    4.1870    0.0000 C   0  0  0  0  0  0  0  0  0  0  0  0
    9.3566    6.2674    0.0000 C   0  0  1  0  0  0  0  0  0  0  0  0
    6.9215    6.2674    0.0000 C   0  0  0  0  0  0  0  0  0  0  0  0
    8.1413    6.9868    0.0000 C   0  0  0  0  0  0  0  0  0  0  0  0
    4.4960    3.4920    0.0000 C   0  0  2  0  0  0  0  0  0  0  0  0
    5.7113    5.5723    0.0000 C   0  0  0  0  0  0  0  0  0  0  0  0
    5.7113    1.3826    0.0000 C   0  0  0  0  0  0  0  0  0  0  0  0
    8.1851    1.3631    0.0000 O   0  0  0  0  0  0  0  0  0  0  0  0
   10.5716    5.5481    0.0000 O   0  0  0  0  0  0  0  0  0  0  0  0
   11.8305    3.5163    0.0000 O   0  0  0  0  0  0  0  0  0  0  0  0
    9.3566    7.6574    0.0000 C   0  0  0  0  0  0  0  0  0  0  0  0
    4.4960    2.0824    0.0000 C   0  0  1  0  0  0  0  0  0  0  0  0
    3.4073    4.3621    0.0000 C   0  0  0  0  0  0  0  0  0  0  0  0
    8.2727    8.5276    0.0000 C   0  0  0  0  0  0  0  0  0  0  0  0
   10.5085    8.4400    0.0000 C   0  0  0  0  0  0  0  0  0  0  0  0
    3.4073    1.2124    0.0000 C   0  0  0  0  0  0  0  0  0  0  0  0
    2.0415    4.0557    0.0000 C   0  0  0  0  0  0  0  0  0  0  0  0
    8.7733    9.8301    0.0000 C   0  0  0  0  0  0  0  0  0  0  0  0
   10.0953    9.7865    0.0000 O   0  0  0  0  0  0  0  0  0  0  0  0
    2.0415    1.5138    0.0000 O   0  0  0  0  0  0  0  0  0  0  0  0
    1.4145    2.8212    0.0000 C   0  0  0  0  0  0  0  0  0  0  0  0
    0.0000    2.7970    0.0000 O   0  0  0  0  0  0  0  0  0  0  0  0
    6.9344    4.8726    0.0000 C   0  0  0  0  0  0  0  0  0  0  0  0
    4.4960    4.8920    0.0000 C   0  0  0  0  0  0  0  0  0  0  0  0
    2.7073    0.0000    0.0000 C   0  0  0  0  0  0  0  0  0  0  0  0
    4.1073    0.0000    0.0000 C   0  0  0  0  0  0  0  0  0  0  0  0
    8.2866    3.4630    0.0000 H   0  0  0  0  0  0  0  0  0  0  0  0
    6.6405    4.7175    0.0000 H   0  0  0  0  0  0  0  0  0  0  0  0
    8.4310    6.8043    0.0000 H   0  0  0  0  0  0  0  0  0  0  0  0
    6.9197    7.3374    0.0000 H   0  0  0  0  0  0  0  0  0  0  0  0
    5.9950    6.8026    0.0000 H   0  0  0  0  0  0  0  0  0  0  0  0
    9.0679    7.5218    0.0000 H   0  0  0  0  0  0  0  0  0  0  0  0
    7.2147    7.5218    0.0000 H   0  0  0  0  0  0  0  0  0  0  0  0
    8.1413    8.0568    0.0000 H   0  0  0  0  0  0  0  0  0  0  0  0
    4.7853    6.1083    0.0000 H   0  0  0  0  0  0  0  0  0  0  0  0
    5.7131    6.6423    0.0000 H   0  0  0  0  0  0  0  0  0  0  0  0
    5.7123    0.3126    0.0000 H   0  0  0  0  0  0  0  0  0  0  0  0
    4.7852    0.8466    0.0000 H   0  0  0  0  0  0  0  0  0  0  0  0
    5.4223    2.6179    0.0000 H   0  0  0  0  0  0  0  0  0  0  0  0
    3.6393    5.3677    0.0000 H   0  0  0  0  0  0  0  0  0  0  0  0
    7.2764    8.2586    0.0000 H   0  0  0  0  0  0  0  0  0  0  0  0
   11.4821    8.0976    0.0000 H   0  0  0  0  0  0  0  0  0  0  0  0
    1.4081    4.8705    0.0000 H   0  0  0  0  0  0  0  0  0  0  0  0
    8.2030   10.6902    0.0000 H   0  0  0  0  0  0  0  0  0  0  0  0
    7.8659    5.3990    0.0000 H   0  0  0  0  0  0  0  0  0  0  0  0
    6.0127    5.4161    0.0000 H   0  0  0  0  0  0  0  0  0  0  0  0
    6.9443    5.9426    0.0000 H   0  0  0  0  0  0  0  0  0  0  0  0
    5.4226    5.4270    0.0000 H   0  0  0  0  0  0  0  0  0  0  0  0
    3.5694    5.4270    0.0000 H   0  0  0  0  0  0  0  0  0  0  0  0
    4.4960    5.9620    0.0000 H   0  0  0  0  0  0  0  0  0  0  0  0
    1.6373    0.0000    0.0000 H   0  0  0  0  0  0  0  0  0  0  0  0
    3.2423   -0.9267    0.0000 H   0  0  0  0  0  0  0  0  0  0  0  0
    2.1723   -0.9266    0.0000 H   0  0  0  0  0  0  0  0  0  0  0  0
    3.5723   -0.9267    0.0000 H   0  0  0  0  0  0  0  0  0  0  0  0
    5.1773    0.0000    0.0000 H   0  0  0  0  0  0  0  0  0  0  0  0
    4.6423   -0.9266    0.0000 H   0  0  0  0  0  0  0  0  0  0  0  0
  1  2  1  0  0  0  0
  1  3  1  0  0  0  0
  1  4  1  0  0  0  0
  1  5  1  1  0  0  0
  2  6  1  0  0  0  0
  2  7  1  0  0  0  0
  2 30  1  1  0  0  0
  3  8  1  0  0  0  0
  3  5  1  0  0  0  0
  3 34  1  6  0  0  0
  4  9  1  0  0  0  0
  4 10  1  0  0  0  0
  4 11  1  6  0  0  0
  6 12  1  0  0  0  0
  6 13  1  0  0  0  0
  6 35  1  6  0  0  0
  7 14  1  0  0  0  0
  7 15  2  0  0  0  0
  8 16  1  0  0  0  0
  8 17  2  0  0  0  0
  9 18  1  0  0  0  0
  9 16  1  0  0  0  0
  9 36  1  1  0  0  0
 10 13  1  0  0  0  0
 10 37  1  0  0  0  0
 10 38  1  0  0  0  0
 11 39  1  0  0  0  0
 11 40  1  0  0  0  0
 11 41  1  0  0  0  0
 12 19  1  0  0  0  0
 12 20  1  0  0  0  0
 12 31  1  1  0  0  0
 13 42  1  0  0  0  0
 13 43  1  0  0  0  0
 14 44  1  0  0  0  0
 14 45  1  0  0  0  0
 18 21  1  0  0  0  0
 18 22  2  0  0  0  0
 19 14  1  0  0  0  0
 19 23  1  0  0  0  0
 19 46  1  6  0  0  0
 20 24  2  0  0  0  0
 20 47  1  0  0  0  0
 21 25  2  0  0  0  0
 21 48  1  0  0  0  0
 22 26  1  0  0  0  0
 22 49  1  0  0  0  0
 23 27  1  0  0  0  0
 23 32  1  0  0  0  0
 23 33  1  0  0  0  0
 24 28  1  0  0  0  0
 24 50  1  0  0  0  0
 25 26  1  0  0  0  0
 25 51  1  0  0  0  0
 27 28  1  0  0  0  0
 28 29  2  0  0  0  0
 30 52  1  0  0  0  0
 30 53  1  0  0  0  0
 30 54  1  0  0  0  0
 31 55  1  0  0  0  0
 31 56  1  0  0  0  0
 31 57  1  0  0  0  0
 32 58  1  0  0  0  0
 32 59  1  0  0  0  0
 32 60  1  0  0  0  0
 33 61  1  0  0  0  0
 33 62  1  0  0  0  0
 33 63  1  0  0  0  0
M  END
>  <Mol_ID>
1805

>  <Formula>
C26H30O7

>  <MolWeight>
454.5122

>  <Cat>
S3784

>  <Name>
Obacunone (AI3-37934)

>  <Synonyms>
CCRIS 8657

>  <Target>
Aromatase,Nrf2

>  <Form>
free base

>  <CAS>
751-03-1

>  <URL>
http://selleckchem.com/products/obacunone.html

$$$$
