S3788 Carvacrol.cdx
 OpenBabel08302519563D

 25 25  0  0  0  0  0  0  0  0999 V2000
   -0.5991    0.5992    0.0032 C   0  0  0  0  0  0  0  0  0  0  0  0
   -0.5271   -0.7962   -0.0030 C   0  0  0  0  0  0  0  0  0  0  0  0
    0.7426   -1.3922   -0.0070 C   0  0  0  0  0  0  0  0  0  0  0  0
    1.9046   -0.6115    0.0004 C   0  0  0  0  0  0  0  0  0  0  0  0
    1.8245    0.7869    0.0122 C   0  0  0  0  0  0  0  0  0  0  0  0
    0.5554    1.3803    0.0120 C   0  0  0  0  0  0  0  0  0  0  0  0
   -1.7521   -1.6620   -0.0019 C   0  0  0  0  0  0  0  0  0  0  0  0
    3.0881    1.6268    0.0358 C   0  0  0  0  0  0  0  0  0  0  0  0
    3.1777    2.5399   -1.1900 C   0  0  0  0  0  0  0  0  0  0  0  0
    3.1859    2.4388    1.3302 C   0  0  0  0  0  0  0  0  0  0  0  0
   -1.7816    1.2843    0.0042 O   0  0  0  0  0  0  0  0  0  0  0  0
    0.8418   -2.4754   -0.0140 H   0  0  0  0  0  0  0  0  0  0  0  0
    2.8718   -1.1083   -0.0002 H   0  0  0  0  0  0  0  0  0  0  0  0
    0.4515    2.4623    0.0221 H   0  0  0  0  0  0  0  0  0  0  0  0
   -2.3556   -1.4594    0.8889 H   0  0  0  0  0  0  0  0  0  0  0  0
   -2.3507   -1.4716   -0.8984 H   0  0  0  0  0  0  0  0  0  0  0  0
   -1.4965   -2.7267    0.0073 H   0  0  0  0  0  0  0  0  0  0  0  0
    3.9582    0.9575    0.0047 H   0  0  0  0  0  0  0  0  0  0  0  0
    2.3563    3.2638   -1.2247 H   0  0  0  0  0  0  0  0  0  0  0  0
    4.1162    3.1045   -1.1839 H   0  0  0  0  0  0  0  0  0  0  0  0
    3.1438    1.9541   -2.1154 H   0  0  0  0  0  0  0  0  0  0  0  0
    3.1597    1.7808    2.2062 H   0  0  0  0  0  0  0  0  0  0  0  0
    4.1233    3.0041    1.3630 H   0  0  0  0  0  0  0  0  0  0  0  0
    2.3625    3.1548    1.4283 H   0  0  0  0  0  0  0  0  0  0  0  0
   -2.5163    0.6532   -0.0151 H   0  0  0  0  0  0  0  0  0  0  0  0
  1  2  2  0  0  0  0
  1  6  1  0  0  0  0
  1 11  1  0  0  0  0
  2  3  1  0  0  0  0
  2  7  1  0  0  0  0
  3  4  2  0  0  0  0
  3 12  1  0  0  0  0
  4  5  1  0  0  0  0
  4 13  1  0  0  0  0
  5  6  2  0  0  0  0
  5  8  1  0  0  0  0
  6 14  1  0  0  0  0
  7 15  1  0  0  0  0
  7 16  1  0  0  0  0
  7 17  1  0  0  0  0
  8  9  1  0  0  0  0
  8 10  1  0  0  0  0
  8 18  1  0  0  0  0
  9 19  1  0  0  0  0
  9 20  1  0  0  0  0
  9 21  1  0  0  0  0
 10 22  1  0  0  0  0
 10 23  1  0  0  0  0
 10 24  1  0  0  0  0
 11 25  1  0  0  0  0
M  END
>  <Mol_ID>
2229

>  <Formula>
C10H14O

>  <MolWeight>
150.21756

>  <Cat>
S3788

>  <Name>
Carvacrol

>  <Synonyms>
cymophenol

>  <Target>
AChR

>  <Form>
free base

>  <CAS>
499-75-2

>  <URL>
http://selleckchem.com/products/carvacrol.html

$$$$
