S3792 Guggulsterone E&Z.cdx
 OpenBabel08302520382D

 51 54  0  0  0  0  0  0  0  0999 V2000
    1.2124    2.1000    0.0000 C   0  0  0  0  0  0  0  0  0  0  0  0
    1.2124    0.7000    0.0000 C   0  0  0  0  0  0  0  0  0  0  0  0
    2.4249    0.0000    0.0000 C   0  0  0  0  0  0  0  0  0  0  0  0
    3.6373    0.7000    0.0000 C   0  0  0  0  0  0  0  0  0  0  0  0
    3.6373    2.1000    0.0000 C   0  0  2  0  0  0  0  0  0  0  0  0
    2.4249    2.8000    0.0000 C   0  0  0  0  0  0  0  0  0  0  0  0
    4.8497    0.0000    0.0000 C   0  0  0  0  0  0  0  0  0  0  0  0
    6.0622    0.7000    0.0000 C   0  0  0  0  0  0  0  0  0  0  0  0
    6.0622    2.1000    0.0000 C   0  0  2  0  0  0  0  0  0  0  0  0
    4.8497    2.8000    0.0000 C   0  0  2  0  0  0  0  0  0  0  0  0
    7.2746    2.8000    0.0000 C   0  0  1  0  0  0  0  0  0  0  0  0
    7.2746    4.2000    0.0000 C   0  0  2  0  0  0  0  0  0  0  0  0
    6.0622    4.9000    0.0000 C   0  0  0  0  0  0  0  0  0  0  0  0
    4.8497    4.2000    0.0000 C   0  0  0  0  0  0  0  0  0  0  0  0
    8.6061    2.3674    0.0000 C   0  0  0  0  0  0  0  0  0  0  0  0
    9.4290    3.5000    0.0000 C   0  0  0  0  0  0  0  0  0  0  0  0
    8.6061    4.6326    0.0000 C   0  0  0  0  0  0  0  0  0  0  0  0
    0.0000    0.0000    0.0000 O   0  0  0  0  0  0  0  0  0  0  0  0
    7.4210    5.5923    0.0000 C   0  0  0  0  0  0  0  0  0  0  0  0
    3.6373    3.5000    0.0000 C   0  0  0  0  0  0  0  0  0  0  0  0
    9.0387    5.9641    0.0000 C   0  0  0  0  0  0  0  0  0  0  0  0
   10.4081    6.2552    0.0000 C   0  0  0  0  0  0  0  0  0  0  0  0
   10.8290    3.5000    0.0000 O   0  0  0  0  0  0  0  0  0  0  0  0
    0.2858    2.6350    0.0000 H   0  0  0  0  0  0  0  0  0  0  0  0
    1.2124    3.1700    0.0000 H   0  0  0  0  0  0  0  0  0  0  0  0
    2.4249   -1.0320    0.0000 H   0  0  0  0  0  0  0  0  0  0  0  0
    2.4249    3.8700    0.0000 H   0  0  0  0  0  0  0  0  0  0  0  0
    1.4983    3.3350    0.0000 H   0  0  0  0  0  0  0  0  0  0  0  0
    4.8497   -1.0700    0.0000 H   0  0  0  0  0  0  0  0  0  0  0  0
    5.7763   -0.5350    0.0000 H   0  0  0  0  0  0  0  0  0  0  0  0
    6.9888    0.1650    0.0000 H   0  0  0  0  0  0  0  0  0  0  0  0
    6.9889    1.2350    0.0000 H   0  0  0  0  0  0  0  0  0  0  0  0
    5.1356    1.5650    0.0000 H   0  0  0  0  0  0  0  0  0  0  0  0
    5.7763    3.3350    0.0000 H   0  0  0  0  0  0  0  0  0  0  0  0
    7.3865    1.7359    0.0000 H   0  0  0  0  0  0  0  0  0  0  0  0
    6.0622    5.9700    0.0000 H   0  0  0  0  0  0  0  0  0  0  0  0
    5.1356    5.4350    0.0000 H   0  0  0  0  0  0  0  0  0  0  0  0
    3.9231    4.7350    0.0000 H   0  0  0  0  0  0  0  0  0  0  0  0
    4.8497    5.2700    0.0000 H   0  0  0  0  0  0  0  0  0  0  0  0
    8.9368    1.3498    0.0000 H   0  0  0  0  0  0  0  0  0  0  0  0
    9.6629    2.2000    0.0000 H   0  0  0  0  0  0  0  0  0  0  0  0
    8.3985    6.0275    0.0000 H   0  0  0  0  0  0  0  0  0  0  0  0
    6.5554    6.2213    0.0000 H   0  0  0  0  0  0  0  0  0  0  0  0
    7.5329    6.6564    0.0000 H   0  0  0  0  0  0  0  0  0  0  0  0
    4.5639    4.0350    0.0000 H   0  0  0  0  0  0  0  0  0  0  0  0
    2.7107    4.0350    0.0000 H   0  0  0  0  0  0  0  0  0  0  0  0
    3.6373    4.5700    0.0000 H   0  0  0  0  0  0  0  0  0  0  0  0
    8.3481    6.7310    0.0000 H   0  0  0  0  0  0  0  0  0  0  0  0
   11.1241    5.4600    0.0000 H   0  0  0  0  0  0  0  0  0  0  0  0
   10.7387    7.2728    0.0000 H   0  0  0  0  0  0  0  0  0  0  0  0
   11.4547    6.4777    0.0000 H   0  0  0  0  0  0  0  0  0  0  0  0
  1  2  1  0  0  0  0
  1 24  1  0  0  0  0
  1 25  1  0  0  0  0
  2  3  1  0  0  0  0
  2 18  2  0  0  0  0
  3  4  2  0  0  0  0
  3 26  1  0  0  0  0
  4  5  1  0  0  0  0
  4  7  1  0  0  0  0
  5  6  1  0  0  0  0
  5 20  1  1  0  0  0
  6  1  1  0  0  0  0
  6 27  1  0  0  0  0
  6 28  1  0  0  0  0
  7  8  1  0  0  0  0
  7 29  1  0  0  0  0
  7 30  1  0  0  0  0
  8 31  1  0  0  0  0
  8 32  1  0  0  0  0
  9  8  1  0  0  0  0
  9 10  1  0  0  0  0
  9 11  1  0  0  0  0
  9 33  1  1  0  0  0
 10  5  1  0  0  0  0
 10 14  1  0  0  0  0
 10 34  1  6  0  0  0
 11 12  1  0  0  0  0
 11 15  1  0  0  0  0
 11 35  1  6  0  0  0
 12 13  1  0  0  0  0
 12 19  1  1  0  0  0
 13 14  1  0  0  0  0
 13 36  1  0  0  0  0
 13 37  1  0  0  0  0
 14 38  1  0  0  0  0
 14 39  1  0  0  0  0
 15 16  1  0  0  0  0
 15 40  1  0  0  0  0
 15 41  1  0  0  0  0
 16 17  1  0  0  0  0
 16 23  2  0  0  0  0
 17 12  1  0  0  0  0
 17 21  2  3  0  0  0
 19 42  1  0  0  0  0
 19 43  1  0  0  0  0
 19 44  1  0  0  0  0
 20 45  1  0  0  0  0
 20 46  1  0  0  0  0
 20 47  1  0  0  0  0
 21 22  1  0  0  0  0
 21 48  1  0  0  0  0
 22 49  1  0  0  0  0
 22 50  1  0  0  0  0
 22 51  1  0  0  0  0
M  END
>  <Mol_ID>
2949

>  <Formula>
C21H28O2

>  <MolWeight>
312.44582

>  <Cat>
S3792

>  <Name>
Guggulsterone E&Z

>  <Synonyms>
N/A

>  <Target>
FXR

>  <Form>
free base

>  <CAS>
95975-55-6

>  <URL>
http://selleckchem.com/products/guggulsterone.html

$$$$
