S3791 Succinic acid.cdx
 OpenBabel08302519513D

 14 13  0  0  0  0  0  0  0  0999 V2000
    0.9783   -0.1435    0.0314 C   0  0  0  0  0  0  0  0  0  0  0  0
    0.5471   -0.4739    1.1241 O   0  0  0  0  0  0  0  0  0  0  0  0
    0.1680    0.0266   -1.0328 O   0  0  0  0  0  0  0  0  0  0  0  0
    2.4332    0.1571   -0.2159 C   0  0  0  0  0  0  0  0  0  0  0  0
    2.9849   -0.4773   -1.4803 C   0  0  0  0  0  0  0  0  0  0  0  0
    4.4578   -0.1935   -1.5853 C   0  0  0  0  0  0  0  0  0  0  0  0
    5.2379   -1.1486   -1.0486 O   0  0  0  0  0  0  0  0  0  0  0  0
    4.9047    0.8336   -2.0784 O   0  0  0  0  0  0  0  0  0  0  0  0
    0.5796    0.3884   -1.8384 H   0  0  0  0  0  0  0  0  0  0  0  0
    2.5719    1.2431   -0.2163 H   0  0  0  0  0  0  0  0  0  0  0  0
    2.9912   -0.2353    0.6448 H   0  0  0  0  0  0  0  0  0  0  0  0
    2.8042   -1.5578   -1.5107 H   0  0  0  0  0  0  0  0  0  0  0  0
    2.5138   -0.0686   -2.3819 H   0  0  0  0  0  0  0  0  0  0  0  0
    4.7621   -1.9102   -0.6678 H   0  0  0  0  0  0  0  0  0  0  0  0
  1  3  1  0  0  0  0
  1  2  2  0  0  0  0
  1  4  1  0  0  0  0
  3  9  1  0  0  0  0
  4  5  1  0  0  0  0
  4 10  1  0  0  0  0
  4 11  1  0  0  0  0
  5  6  1  0  0  0  0
  5 12  1  0  0  0  0
  5 13  1  0  0  0  0
  6  7  1  0  0  0  0
  6  8  2  0  0  0  0
  7 14  1  0  0  0  0
M  END
>  <Mol_ID>
1858

>  <Formula>
C4H6O4

>  <MolWeight>
118.08804

>  <Cat>
S3791

>  <Name>
Succinic acid

>  <Synonyms>
1,4-Butandioic Acid, 1,2-Ethanedicarboxylic acid, Amber acid, Asuccin, Butanedioic acid

>  <Target>
Others

>  <Form>
free base

>  <CAS>
110-15-6

>  <URL>
http://selleckchem.com/products/succinic-acid.html

$$$$
