S3802 Trigonelline Hydrochloride.cdx
 OpenBabel08302519513D

 18 18  0  0  0  0  0  0  0  0999 V2000
   -0.2489    1.2055    0.0007 C   0  0  0  0  0  0  0  0  0  0  0  0
    1.1443    1.2167    0.0014 C   0  0  0  0  0  0  0  0  0  0  0  0
    1.8380    0.0083    0.0154 C   0  0  0  0  0  0  0  0  0  0  0  0
    1.1230   -1.1848    0.0181 C   0  0  0  0  0  0  0  0  0  0  0  0
   -0.2676   -1.1503    0.0183 C   0  0  0  0  0  0  0  0  0  0  0  0
   -0.9267    0.0320    0.0189 N   0  3  0  0  0  0  0  0  0  0  0  0
    1.8109    2.5304   -0.0061 C   0  0  0  0  0  0  0  0  0  0  0  0
    1.2181    3.5901   -0.0341 O   0  0  0  0  0  0  0  0  0  0  0  0
    3.1461    2.4325    0.0264 O   0  0  0  0  0  0  0  0  0  0  0  0
   -2.4002    0.0263    0.0636 C   0  0  0  0  0  0  0  0  0  0  0  0
   -0.8333    2.1225   -0.0083 H   0  0  0  0  0  0  0  0  0  0  0  0
    2.9275   -0.0131    0.0246 H   0  0  0  0  0  0  0  0  0  0  0  0
    1.6493   -2.1375    0.0248 H   0  0  0  0  0  0  0  0  0  0  0  0
   -0.8641   -2.0590    0.0233 H   0  0  0  0  0  0  0  0  0  0  0  0
    3.4911    3.3532    0.0213 H   0  0  0  0  0  0  0  0  0  0  0  0
   -2.7616   -0.5380   -0.7996 H   0  0  0  0  0  0  0  0  0  0  0  0
   -2.6990   -0.4538    0.9995 H   0  0  0  0  0  0  0  0  0  0  0  0
   -2.7821    1.0489    0.0298 H   0  0  0  0  0  0  0  0  0  0  0  0
  1  2  2  0  0  0  0
  1  6  1  0  0  0  0
  1 11  1  0  0  0  0
  2  3  1  0  0  0  0
  2  7  1  0  0  0  0
  3  4  2  0  0  0  0
  3 12  1  0  0  0  0
  4  5  1  0  0  0  0
  4 13  1  0  0  0  0
  5  6  2  0  0  0  0
  5 14  1  0  0  0  0
  6 10  1  0  0  0  0
  7  8  2  0  0  0  0
  7  9  1  0  0  0  0
  9 15  1  0  0  0  0
 10 16  1  0  0  0  0
 10 17  1  0  0  0  0
 10 18  1  0  0  0  0
M  CHG  1   6   1
M  END
>  <Mol_ID>
1843

>  <Formula>
C7H8ClNO2

>  <MolWeight>
173.59692

>  <Cat>
S3802

>  <Name>
Trigonelline Hydrochloride

>  <Synonyms>
Nicotinic acid N-methylbetaine Hydrochloride, Coffearine Hydrochloride, Gynesine Hydrochloride

>  <Target>
Bacterial

>  <Form>
chloride

>  <CAS>
6138-41-6

>  <URL>
http://selleckchem.com/products/trigonelline-hydrochloride.html

$$$$
