S3812 Monocrotaline.cdx
 OpenBabel08302520012D

 46 48  0  0  0  0  0  0  0  0999 V2000
    2.8705    1.8541    0.0000 C   0  0  2  0  0  0  0  0  0  0  0  0
    1.5374    2.2873    0.0000 C   0  0  1  0  0  0  0  0  0  0  0  0
    2.8705    0.4543    0.0000 N   0  0  3  0  0  0  0  0  0  0  0  0
    4.2038    2.2749    0.0000 C   0  0  0  0  0  0  0  0  0  0  0  0
    0.7166    1.1541    0.0000 C   0  0  0  0  0  0  0  0  0  0  0  0
    1.0290    3.5873    0.0000 O   0  0  0  0  0  0  0  0  0  0  0  0
    1.5374    0.0209    0.0000 C   0  0  0  0  0  0  0  0  0  0  0  0
    4.2081    0.0000    0.0000 C   0  0  0  0  0  0  0  0  0  0  0  0
    5.0246    1.1000    0.0000 C   0  0  0  0  0  0  0  0  0  0  0  0
    4.8122    3.5330    0.0000 C   0  0  0  0  0  0  0  0  0  0  0  0
    1.9040    4.6790    0.0000 C   0  0  0  0  0  0  0  0  0  0  0  0
    4.0248    4.6873    0.0000 O   0  0  0  0  0  0  0  0  0  0  0  0
    1.3956    5.9788    0.0000 C   0  0  1  0  0  0  0  0  0  0  0  0
    3.2831    4.4663    0.0000 O   0  0  0  0  0  0  0  0  0  0  0  0
    4.6413    5.9496    0.0000 C   0  0  0  0  0  0  0  0  0  0  0  0
    2.2707    7.0705    0.0000 C   0  0  2  0  0  0  0  0  0  0  0  0
    0.0000    6.1913    0.0000 C   0  0  0  0  0  0  0  0  0  0  0  0
    3.8081    7.0747    0.0000 C   0  0  2  0  0  0  0  0  0  0  0  0
    6.0330    6.0498    0.0000 O   0  0  0  0  0  0  0  0  0  0  0  0
    2.3623    8.4787    0.0000 O   0  0  0  0  0  0  0  0  0  0  0  0
    1.0998    7.8495    0.0000 C   0  0  0  0  0  0  0  0  0  0  0  0
    5.0372    7.8704    0.0000 C   0  0  0  0  0  0  0  0  0  0  0  0
    3.7830    8.5163    0.0000 O   0  0  0  0  0  0  0  0  0  0  0  0
    2.0048    1.2252    0.0000 H   0  0  0  0  0  0  0  0  0  0  0  0
    1.8688    1.2699    0.0000 H   0  0  0  0  0  0  0  0  0  0  0  0
   -0.3534    1.1541    0.0000 H   0  0  0  0  0  0  0  0  0  0  0  0
    0.2301    0.2011    0.0000 H   0  0  0  0  0  0  0  0  0  0  0  0
    1.2061   -0.9965    0.0000 H   0  0  0  0  0  0  0  0  0  0  0  0
    0.4804   -0.1454    0.0000 H   0  0  0  0  0  0  0  0  0  0  0  0
    4.5268   -1.0214    0.0000 H   0  0  0  0  0  0  0  0  0  0  0  0
    5.2630   -0.1790    0.0000 H   0  0  0  0  0  0  0  0  0  0  0  0
    6.0565    1.0852    0.0000 H   0  0  0  0  0  0  0  0  0  0  0  0
    5.8793    3.6122    0.0000 H   0  0  0  0  0  0  0  0  0  0  0  0
    5.2767    4.4969    0.0000 H   0  0  0  0  0  0  0  0  0  0  0  0
    0.7274    5.1431    0.0000 H   0  0  0  0  0  0  0  0  0  0  0  0
   -0.3894    7.1879    0.0000 H   0  0  0  0  0  0  0  0  0  0  0  0
   -0.6684    5.3557    0.0000 H   0  0  0  0  0  0  0  0  0  0  0  0
   -1.0578    6.3524    0.0000 H   0  0  0  0  0  0  0  0  0  0  0  0
    3.2321    8.9081    0.0000 H   0  0  0  0  0  0  0  0  0  0  0  0
    1.1677    8.9173    0.0000 H   0  0  0  0  0  0  0  0  0  0  0  0
    0.1411    7.3743    0.0000 H   0  0  0  0  0  0  0  0  0  0  0  0
    0.2089    8.4422    0.0000 H   0  0  0  0  0  0  0  0  0  0  0  0
    5.9899    7.3833    0.0000 H   0  0  0  0  0  0  0  0  0  0  0  0
    4.9827    8.9390    0.0000 H   0  0  0  0  0  0  0  0  0  0  0  0
    5.9354    8.4519    0.0000 H   0  0  0  0  0  0  0  0  0  0  0  0
    4.6145    9.0159    0.0000 H   0  0  0  0  0  0  0  0  0  0  0  0
  1  2  1  0  0  0  0
  1  3  1  0  0  0  0
  1  4  1  0  0  0  0
  1 24  1  6  0  0  0
  2  5  1  0  0  0  0
  2  6  1  0  0  0  0
  2 25  1  6  0  0  0
  3  7  1  0  0  0  0
  3  8  1  0  0  0  0
  4  9  2  0  0  0  0
  4 10  1  0  0  0  0
  5  7  1  0  0  0  0
  5 26  1  0  0  0  0
  5 27  1  0  0  0  0
  6 11  1  0  0  0  0
  7 28  1  0  0  0  0
  7 29  1  0  0  0  0
  8  9  1  0  0  0  0
  8 30  1  0  0  0  0
  8 31  1  0  0  0  0
  9 32  1  0  0  0  0
 10 12  1  0  0  0  0
 10 33  1  0  0  0  0
 10 34  1  0  0  0  0
 11 13  1  0  0  0  0
 11 14  2  0  0  0  0
 12 15  1  0  0  0  0
 13 16  1  0  0  0  0
 13 17  1  0  0  0  0
 13 35  1  1  0  0  0
 15 18  1  0  0  0  0
 15 19  2  0  0  0  0
 16 20  1  1  0  0  0
 16 21  1  0  0  0  0
 16 18  1  0  0  0  0
 17 36  1  0  0  0  0
 17 37  1  0  0  0  0
 17 38  1  0  0  0  0
 18 22  1  0  0  0  0
 18 23  1  1  0  0  0
 20 39  1  0  0  0  0
 21 40  1  0  0  0  0
 21 41  1  0  0  0  0
 21 42  1  0  0  0  0
 22 43  1  0  0  0  0
 22 44  1  0  0  0  0
 22 45  1  0  0  0  0
 23 46  1  0  0  0  0
M  END
>  <Mol_ID>
1827

>  <Formula>
C16H23NO6

>  <MolWeight>
325.35692

>  <Cat>
S3812

>  <Name>
Monocrotaline

>  <Synonyms>
Crotaline

>  <Target>
Others

>  <Form>
free base

>  <CAS>
315-22-0

>  <URL>
http://selleckchem.com/products/monocrotaline.html

$$$$
