S3822 Schisandrin A.cdx
 OpenBabel08302519513D

 62 64  0  0  0  0  0  0  0  0999 V2000
    0.7110   -0.7126   -0.1276 C   0  0  0  0  0  0  0  0  0  0  0  0
   -0.7516   -0.6615    0.0575 C   0  0  0  0  0  0  0  0  0  0  0  0
    1.3607   -1.7465   -0.8625 C   0  0  0  0  0  0  0  0  0  0  0  0
    1.4942    0.2687    0.5246 C   0  0  0  0  0  0  0  0  0  0  0  0
   -1.4391   -1.5904    0.8887 C   0  0  0  0  0  0  0  0  0  0  0  0
   -1.4858    0.3384   -0.6226 C   0  0  0  0  0  0  0  0  0  0  0  0
    2.7804   -1.8160   -0.9009 C   0  0  0  0  0  0  0  0  0  0  0  0
    0.6715   -2.7961   -1.4261 O   0  0  0  0  0  0  0  0  0  0  0  0
    2.8863    0.1485    0.5139 C   0  0  0  0  0  0  0  0  0  0  0  0
    0.8946    1.4734    1.2291 C   0  0  0  0  0  0  0  0  0  0  0  0
   -2.8523   -1.5706    0.9469 C   0  0  0  0  0  0  0  0  0  0  0  0
   -0.7858   -2.6125    1.5382 O   0  0  0  0  0  0  0  0  0  0  0  0
   -2.8884    0.3544   -0.5363 C   0  0  0  0  0  0  0  0  0  0  0  0
   -0.8200    1.4586   -1.4021 C   0  0  0  0  0  0  0  0  0  0  0  0
    3.5368   -0.8596   -0.1970 C   0  0  0  0  0  0  0  0  0  0  0  0
    3.4925   -2.7227   -1.6458 O   0  0  0  0  0  0  0  0  0  0  0  0
   -0.4182   -2.4993   -2.2907 C   0  0  0  0  0  0  0  0  0  0  0  0
    0.7046    2.7197    0.3257 C   0  0  2  0  0  0  0  0  0  0  0  0
   -3.5757   -0.5977    0.2162 C   0  0  0  0  0  0  0  0  0  0  0  0
   -3.6500   -2.4724    1.6198 O   0  0  0  0  0  0  0  0  0  0  0  0
    0.3371   -2.2504    2.3387 C   0  0  0  0  0  0  0  0  0  0  0  0
   -0.6113    2.7068   -0.5124 C   0  0  1  0  0  0  0  0  0  0  0  0
    4.8962   -0.7484   -0.0614 O   0  0  0  0  0  0  0  0  0  0  0  0
    2.9797   -4.0373   -1.8050 C   0  0  0  0  0  0  0  0  0  0  0  0
   -4.9503   -0.6249    0.3175 O   0  0  0  0  0  0  0  0  0  0  0  0
   -3.1185   -3.1191    2.7630 C   0  0  0  0  0  0  0  0  0  0  0  0
    5.7451   -1.6000   -0.8090 C   0  0  0  0  0  0  0  0  0  0  0  0
   -5.6869    0.3401   -0.4196 C   0  0  0  0  0  0  0  0  0  0  0  0
   -0.7415    3.9719   -1.3726 C   0  0  0  0  0  0  0  0  0  0  0  0
    1.9593    3.0291   -0.5031 C   0  0  0  0  0  0  0  0  0  0  0  0
    3.4941    0.8683    1.0615 H   0  0  0  0  0  0  0  0  0  0  0  0
    1.5617    1.7481    2.0585 H   0  0  0  0  0  0  0  0  0  0  0  0
   -0.0464    1.2160    1.7306 H   0  0  0  0  0  0  0  0  0  0  0  0
   -3.4214    1.1338   -1.0737 H   0  0  0  0  0  0  0  0  0  0  0  0
   -1.4784    1.7074   -2.2458 H   0  0  0  0  0  0  0  0  0  0  0  0
    0.1119    1.1355   -1.8759 H   0  0  0  0  0  0  0  0  0  0  0  0
   -1.3600   -2.4726   -1.7382 H   0  0  0  0  0  0  0  0  0  0  0  0
   -0.2659   -1.5840   -2.8689 H   0  0  0  0  0  0  0  0  0  0  0  0
   -0.5115   -3.3335   -2.9940 H   0  0  0  0  0  0  0  0  0  0  0  0
    0.5933    3.5648    1.0222 H   0  0  0  0  0  0  0  0  0  0  0  0
    1.2637   -2.4525    1.7955 H   0  0  0  0  0  0  0  0  0  0  0  0
    0.3018   -1.2155    2.6949 H   0  0  0  0  0  0  0  0  0  0  0  0
    0.3530   -2.9009    3.2170 H   0  0  0  0  0  0  0  0  0  0  0  0
   -1.4366    2.7587    0.2145 H   0  0  0  0  0  0  0  0  0  0  0  0
    2.5543   -4.4323   -0.8771 H   0  0  0  0  0  0  0  0  0  0  0  0
    2.2690   -4.0769   -2.6354 H   0  0  0  0  0  0  0  0  0  0  0  0
    3.8202   -4.6824   -2.0815 H   0  0  0  0  0  0  0  0  0  0  0  0
   -2.4442   -3.9317    2.4788 H   0  0  0  0  0  0  0  0  0  0  0  0
   -2.6406   -2.4103    3.4477 H   0  0  0  0  0  0  0  0  0  0  0  0
   -3.9518   -3.5840    3.2988 H   0  0  0  0  0  0  0  0  0  0  0  0
    5.6572   -2.6381   -0.4749 H   0  0  0  0  0  0  0  0  0  0  0  0
    5.5728   -1.4903   -1.8836 H   0  0  0  0  0  0  0  0  0  0  0  0
    6.7752   -1.2837   -0.6151 H   0  0  0  0  0  0  0  0  0  0  0  0
   -5.4483    1.3559   -0.0905 H   0  0  0  0  0  0  0  0  0  0  0  0
   -5.5274    0.2229   -1.4952 H   0  0  0  0  0  0  0  0  0  0  0  0
   -6.7533    0.1755   -0.2235 H   0  0  0  0  0  0  0  0  0  0  0  0
   -0.0252    3.9734   -2.2006 H   0  0  0  0  0  0  0  0  0  0  0  0
   -1.7449    4.0394   -1.8063 H   0  0  0  0  0  0  0  0  0  0  0  0
   -0.5808    4.8723   -0.7706 H   0  0  0  0  0  0  0  0  0  0  0  0
    1.9062    4.0213   -0.9598 H   0  0  0  0  0  0  0  0  0  0  0  0
    2.8513    3.0307    0.1332 H   0  0  0  0  0  0  0  0  0  0  0  0
    2.1099    2.3016   -1.3071 H   0  0  0  0  0  0  0  0  0  0  0  0
  1  2  1  0  0  0  0
  1  3  2  0  0  0  0
  1  4  1  0  0  0  0
  2  5  2  0  0  0  0
  2  6  1  0  0  0  0
  3  7  1  0  0  0  0
  3  8  1  0  0  0  0
  4  9  2  0  0  0  0
  4 10  1  0  0  0  0
  5 11  1  0  0  0  0
  5 12  1  0  0  0  0
  6 13  2  0  0  0  0
  6 14  1  0  0  0  0
  7 15  2  0  0  0  0
  7 16  1  0  0  0  0
  8 17  1  0  0  0  0
  9 15  1  0  0  0  0
  9 31  1  0  0  0  0
 10 18  1  0  0  0  0
 10 32  1  0  0  0  0
 10 33  1  0  0  0  0
 11 19  2  0  0  0  0
 11 20  1  0  0  0  0
 12 21  1  0  0  0  0
 13 19  1  0  0  0  0
 13 34  1  0  0  0  0
 14 22  1  0  0  0  0
 14 35  1  0  0  0  0
 14 36  1  0  0  0  0
 15 23  1  0  0  0  0
 16 24  1  0  0  0  0
 17 37  1  0  0  0  0
 17 38  1  0  0  0  0
 17 39  1  0  0  0  0
 18 22  1  0  0  0  0
 18 30  1  0  0  0  0
 18 40  1  1  0  0  0
 19 25  1  0  0  0  0
 20 26  1  0  0  0  0
 21 41  1  0  0  0  0
 21 42  1  0  0  0  0
 21 43  1  0  0  0  0
 22 44  1  1  0  0  0
 22 29  1  0  0  0  0
 23 27  1  0  0  0  0
 24 45  1  0  0  0  0
 24 46  1  0  0  0  0
 24 47  1  0  0  0  0
 25 28  1  0  0  0  0
 26 48  1  0  0  0  0
 26 49  1  0  0  0  0
 26 50  1  0  0  0  0
 27 51  1  0  0  0  0
 27 52  1  0  0  0  0
 27 53  1  0  0  0  0
 28 54  1  0  0  0  0
 28 55  1  0  0  0  0
 28 56  1  0  0  0  0
 29 57  1  0  0  0  0
 29 58  1  0  0  0  0
 29 59  1  0  0  0  0
 30 60  1  0  0  0  0
 30 61  1  0  0  0  0
 30 62  1  0  0  0  0
M  END
>  <Mol_ID>
1772

>  <Formula>
C24H32O6

>  <MolWeight>
416.50728

>  <Cat>
S3822

>  <Name>
Schisandrin A

>  <Synonyms>
Deoxyschizandrin, Wuweizisu A

>  <Target>
AdipoR

>  <Form>
free base

>  <CAS>
61281-38-7

>  <URL>
http://selleckchem.com/products/schisandrin-a.html

$$$$
