S3821 Nuciferine.cdx
 OpenBabel08302521392D

 43 46  0  0  0  0  0  0  0  0999 V2000
    3.6601    4.2064    0.0000 C   0  0  0  0  0  0  0  0  0  0  0  0
    4.8761    3.4937    0.0000 C   0  0  0  0  0  0  0  0  0  0  0  0
    2.4362    3.5019    0.0000 C   0  0  0  0  0  0  0  0  0  0  0  0
    3.6735    5.5980    0.0000 C   0  0  0  0  0  0  0  0  0  0  0  0
    4.8799    2.0563    0.0000 C   0  0  1  0  0  0  0  0  0  0  0  0
    6.0841    4.1944    0.0000 C   0  0  0  0  0  0  0  0  0  0  0  0
    2.4280    2.0643    0.0000 C   0  0  0  0  0  0  0  0  0  0  0  0
    1.2121    4.2064    0.0000 C   0  0  0  0  0  0  0  0  0  0  0  0
    4.8764    6.2922    0.0000 C   0  0  0  0  0  0  0  0  0  0  0  0
    2.4611    6.2980    0.0000 O   0  0  0  0  0  0  0  0  0  0  0  0
    3.6722    1.3718    0.0000 C   0  0  0  0  0  0  0  0  0  0  0  0
    6.0801    1.4000    0.0000 N   0  0  0  0  0  0  0  0  0  0  0  0
    6.0841    5.5917    0.0000 C   0  0  0  0  0  0  0  0  0  0  0  0
    7.2962    3.4937    0.0000 C   0  0  0  0  0  0  0  0  0  0  0  0
    1.2362    1.3718    0.0000 C   0  0  0  0  0  0  0  0  0  0  0  0
    0.0000    3.4858    0.0000 C   0  0  0  0  0  0  0  0  0  0  0  0
    4.8764    7.6922    0.0000 O   0  0  0  0  0  0  0  0  0  0  0  0
    1.2507    5.5992    0.0000 C   0  0  0  0  0  0  0  0  0  0  0  0
    7.2760    2.0280    0.0000 C   0  0  0  0  0  0  0  0  0  0  0  0
    6.0801    0.0000    0.0000 C   0  0  0  0  0  0  0  0  0  0  0  0
    0.0041    2.0724    0.0000 C   0  0  0  0  0  0  0  0  0  0  0  0
    6.0891    8.3923    0.0000 C   0  0  0  0  0  0  0  0  0  0  0  0
    3.9547    2.5938    0.0000 H   0  0  0  0  0  0  0  0  0  0  0  0
    1.2048    5.2384    0.0000 H   0  0  0  0  0  0  0  0  0  0  0  0
    3.6763    0.3018    0.0000 H   0  0  0  0  0  0  0  0  0  0  0  0
    2.7508    0.8277    0.0000 H   0  0  0  0  0  0  0  0  0  0  0  0
    6.9784    6.1068    0.0000 H   0  0  0  0  0  0  0  0  0  0  0  0
    8.2267    4.0220    0.0000 H   0  0  0  0  0  0  0  0  0  0  0  0
    8.2172    2.9490    0.0000 H   0  0  0  0  0  0  0  0  0  0  0  0
    1.2410    0.3398    0.0000 H   0  0  0  0  0  0  0  0  0  0  0  0
   -0.8978    3.9948    0.0000 H   0  0  0  0  0  0  0  0  0  0  0  0
    0.3241    6.1342    0.0000 H   0  0  0  0  0  0  0  0  0  0  0  0
    1.2507    4.5292    0.0000 H   0  0  0  0  0  0  0  0  0  0  0  0
    0.3240    5.0642    0.0000 H   0  0  0  0  0  0  0  0  0  0  0  0
    8.1879    1.4683    0.0000 H   0  0  0  0  0  0  0  0  0  0  0  0
    8.2133    2.5440    0.0000 H   0  0  0  0  0  0  0  0  0  0  0  0
    5.1535   -0.5350    0.0000 H   0  0  0  0  0  0  0  0  0  0  0  0
    7.0067   -0.5350    0.0000 H   0  0  0  0  0  0  0  0  0  0  0  0
    6.0801   -1.0700    0.0000 H   0  0  0  0  0  0  0  0  0  0  0  0
   -0.8872    1.5522    0.0000 H   0  0  0  0  0  0  0  0  0  0  0  0
    7.0157    7.8573    0.0000 H   0  0  0  0  0  0  0  0  0  0  0  0
    6.0891    9.4623    0.0000 H   0  0  0  0  0  0  0  0  0  0  0  0
    7.0158    8.9273    0.0000 H   0  0  0  0  0  0  0  0  0  0  0  0
  1  2  1  0  0  0  0
  1  3  1  0  0  0  0
  1  4  2  0  0  0  0
  2  5  1  0  0  0  0
  2  6  2  0  0  0  0
  3  7  2  0  0  0  0
  3  8  1  0  0  0  0
  4  9  1  0  0  0  0
  4 10  1  0  0  0  0
  5 11  1  0  0  0  0
  5 12  1  0  0  0  0
  5 23  1  1  0  0  0
  6 13  1  0  0  0  0
  6 14  1  0  0  0  0
  7 15  1  0  0  0  0
  7 11  1  0  0  0  0
  8 16  2  0  0  0  0
  8 24  1  0  0  0  0
  9 17  1  0  0  0  0
  9 13  2  0  0  0  0
 10 18  1  0  0  0  0
 11 25  1  0  0  0  0
 11 26  1  0  0  0  0
 12 19  1  0  0  0  0
 12 20  1  0  0  0  0
 13 27  1  0  0  0  0
 14 19  1  0  0  0  0
 14 28  1  0  0  0  0
 14 29  1  0  0  0  0
 15 21  2  0  0  0  0
 15 30  1  0  0  0  0
 16 21  1  0  0  0  0
 16 31  1  0  0  0  0
 17 22  1  0  0  0  0
 18 32  1  0  0  0  0
 18 33  1  0  0  0  0
 18 34  1  0  0  0  0
 19 35  1  0  0  0  0
 19 36  1  0  0  0  0
 20 37  1  0  0  0  0
 20 38  1  0  0  0  0
 20 39  1  0  0  0  0
 21 40  1  0  0  0  0
 22 41  1  0  0  0  0
 22 42  1  0  0  0  0
 22 43  1  0  0  0  0
M  END
>  <Mol_ID>
7999

>  <Formula>
C19H21NO2

>  <MolWeight>
295.37554

>  <Cat>
S3821

>  <Name>
Nuciferine

>  <Synonyms>
Sanjoinine E, (-)-Nuciferine, VLT 049

>  <Target>
5-HT Receptor,5-HT Receptor,Dopamine Receptor

>  <Form>
free base

>  <CAS>
475-83-2

>  <URL>
http://selleckchem.com/products/nuciferine.html

$$$$
