S3839 1-Deoxynojirimycin.cdx
 OpenBabel08302519503D

 24 24  0  0  0  0  0  0  0  0999 V2000
    1.2661   -1.4304   -0.1609 C   0  0  2  0  0  0  0  0  0  0  0  0
    1.2560    0.0502    0.2692 C   0  0  2  0  0  0  0  0  0  0  0  0
    0.0432   -2.1533    0.2524 N   0  0  0  0  0  0  0  0  0  0  0  0
    2.5066   -2.1454    0.4118 C   0  0  0  0  0  0  0  0  0  0  0  0
   -0.0292    0.7460   -0.2235 C   0  0  1  0  0  0  0  0  0  0  0  0
    2.4185    0.7175   -0.2360 O   0  0  0  0  0  0  0  0  0  0  0  0
   -1.1720   -1.4887   -0.2255 C   0  0  0  0  0  0  0  0  0  0  0  0
    2.5107   -3.5182    0.0204 O   0  0  0  0  0  0  0  0  0  0  0  0
   -1.2720   -0.0318    0.2410 C   0  0  2  0  0  0  0  0  0  0  0  0
   -0.0792    2.1049    0.2263 O   0  0  0  0  0  0  0  0  0  0  0  0
   -2.4784    0.5461   -0.2653 O   0  0  0  0  0  0  0  0  0  0  0  0
    1.3423   -1.4906   -1.2552 H   0  0  0  0  0  0  0  0  0  0  0  0
    1.3126    0.1290    1.3622 H   0  0  0  0  0  0  0  0  0  0  0  0
    0.0779   -3.0892   -0.1580 H   0  0  0  0  0  0  0  0  0  0  0  0
    3.4298   -1.6927    0.0359 H   0  0  0  0  0  0  0  0  0  0  0  0
    2.5315   -2.1007    1.5074 H   0  0  0  0  0  0  0  0  0  0  0  0
   -0.0192    0.8138   -1.3179 H   0  0  0  0  0  0  0  0  0  0  0  0
    2.2516    0.9748   -1.1597 H   0  0  0  0  0  0  0  0  0  0  0  0
   -2.0478   -2.0414    0.1336 H   0  0  0  0  0  0  0  0  0  0  0  0
   -1.2239   -1.5342   -1.3217 H   0  0  0  0  0  0  0  0  0  0  0  0
    1.8763   -3.9651    0.6053 H   0  0  0  0  0  0  0  0  0  0  0  0
   -1.3478    0.0092    1.3344 H   0  0  0  0  0  0  0  0  0  0  0  0
   -0.0935    2.0978    1.2022 H   0  0  0  0  0  0  0  0  0  0  0  0
   -2.3107    0.8688   -1.1673 H   0  0  0  0  0  0  0  0  0  0  0  0
  1  2  1  0  0  0  0
  1  3  1  0  0  0  0
  1  4  1  0  0  0  0
  1 12  1  6  0  0  0
  2  5  1  0  0  0  0
  2  6  1  0  0  0  0
  2 13  1  1  0  0  0
  3  7  1  0  0  0  0
  3 14  1  0  0  0  0
  4  8  1  0  0  0  0
  4 15  1  0  0  0  0
  4 16  1  0  0  0  0
  5  9  1  0  0  0  0
  5 10  1  0  0  0  0
  5 17  1  6  0  0  0
  6 18  1  0  0  0  0
  7  9  1  0  0  0  0
  7 19  1  0  0  0  0
  7 20  1  0  0  0  0
  8 21  1  0  0  0  0
  9 11  1  0  0  0  0
  9 22  1  1  0  0  0
 10 23  1  0  0  0  0
 11 24  1  0  0  0  0
M  END
>  <Mol_ID>
1766

>  <Formula>
C6H13NO4

>  <MolWeight>
163.17172

>  <Cat>
S3839

>  <Name>
1-Deoxynojirimycin

>  <Synonyms>
duvoglustat, moranolin

>  <Target>
Carbohydrate Metabolism

>  <Form>
free base

>  <CAS>
19130-96-2

>  <URL>
http://selleckchem.com/products/1-deoxynojirimycin.html

$$$$
