S3836 6-Gingerol.cdx
 OpenBabel08302519513D

 47 47  0  0  0  0  0  0  0  0999 V2000
    0.0288   -0.3915    0.2667 C   0  0  0  0  0  0  0  0  0  0  0  0
    0.6464   -0.4025   -1.1305 C   0  0  0  0  0  0  0  0  0  0  0  0
    1.0862   -1.7928   -1.5680 C   0  0  0  0  0  0  0  0  0  0  0  0
    0.0636   -2.9150   -1.5844 C   0  0  0  0  0  0  0  0  0  0  0  0
   -0.0984   -3.5859   -2.9520 C   0  0  2  0  0  0  0  0  0  0  0  0
   -1.1560   -4.7065   -2.9093 C   0  0  0  0  0  0  0  0  0  0  0  0
   -2.5829   -4.3041   -2.5222 C   0  0  0  0  0  0  0  0  0  0  0  0
   -3.2561   -3.2509   -3.4042 C   0  0  0  0  0  0  0  0  0  0  0  0
   -3.4505   -3.6825   -4.8578 C   0  0  0  0  0  0  0  0  0  0  0  0
   -4.1744   -2.6025   -5.6509 C   0  0  0  0  0  0  0  0  0  0  0  0
    2.2482   -2.0040   -1.9260 O   0  0  0  0  0  0  0  0  0  0  0  0
   -0.4104    0.9872    0.7063 C   0  0  0  0  0  0  0  0  0  0  0  0
    0.4756    1.8166    1.4160 C   0  0  0  0  0  0  0  0  0  0  0  0
    0.0624    3.0802    1.8616 C   0  0  0  0  0  0  0  0  0  0  0  0
   -1.2280    3.5161    1.5571 C   0  0  0  0  0  0  0  0  0  0  0  0
   -2.1103    2.7255    0.8379 C   0  0  0  0  0  0  0  0  0  0  0  0
   -1.7056    1.4530    0.4256 C   0  0  0  0  0  0  0  0  0  0  0  0
    0.8189    3.9554    2.5996 O   0  0  0  0  0  0  0  0  0  0  0  0
    2.1127    3.5103    2.9882 C   0  0  0  0  0  0  0  0  0  0  0  0
   -1.6549    4.7478    1.9754 O   0  0  0  0  0  0  0  0  0  0  0  0
    1.1215   -4.2197   -3.3485 O   0  0  0  0  0  0  0  0  0  0  0  0
    0.7467   -0.7936    0.9938 H   0  0  0  0  0  0  0  0  0  0  0  0
   -0.8375   -1.0598    0.3231 H   0  0  0  0  0  0  0  0  0  0  0  0
   -0.0492   -0.0133   -1.8837 H   0  0  0  0  0  0  0  0  0  0  0  0
    1.5292    0.2490   -1.1470 H   0  0  0  0  0  0  0  0  0  0  0  0
    0.3931   -3.6443   -0.8362 H   0  0  0  0  0  0  0  0  0  0  0  0
   -0.8983   -2.5083   -1.2656 H   0  0  0  0  0  0  0  0  0  0  0  0
   -0.3492   -2.8509   -3.7246 H   0  0  0  0  0  0  0  0  0  0  0  0
   -1.1680   -5.2342   -3.8715 H   0  0  0  0  0  0  0  0  0  0  0  0
   -0.8181   -5.4650   -2.1882 H   0  0  0  0  0  0  0  0  0  0  0  0
   -3.2042   -5.2089   -2.5161 H   0  0  0  0  0  0  0  0  0  0  0  0
   -2.5879   -3.9401   -1.4881 H   0  0  0  0  0  0  0  0  0  0  0  0
   -4.2417   -3.0353   -2.9709 H   0  0  0  0  0  0  0  0  0  0  0  0
   -2.6908   -2.3131   -3.3657 H   0  0  0  0  0  0  0  0  0  0  0  0
   -2.4839   -3.8821   -5.3316 H   0  0  0  0  0  0  0  0  0  0  0  0
   -4.0339   -4.6103   -4.8993 H   0  0  0  0  0  0  0  0  0  0  0  0
   -3.5990   -1.6711   -5.6546 H   0  0  0  0  0  0  0  0  0  0  0  0
   -4.3161   -2.9184   -6.6889 H   0  0  0  0  0  0  0  0  0  0  0  0
   -5.1602   -2.3933   -5.2226 H   0  0  0  0  0  0  0  0  0  0  0  0
    1.4757    1.4469    1.6215 H   0  0  0  0  0  0  0  0  0  0  0  0
   -3.1108    3.0840    0.6201 H   0  0  0  0  0  0  0  0  0  0  0  0
   -2.4167    0.8227   -0.1080 H   0  0  0  0  0  0  0  0  0  0  0  0
    2.0656    2.5631    3.5374 H   0  0  0  0  0  0  0  0  0  0  0  0
    2.7697    3.4305    2.1167 H   0  0  0  0  0  0  0  0  0  0  0  0
    2.5361    4.2593    3.6641 H   0  0  0  0  0  0  0  0  0  0  0  0
   -0.8973    5.1219    2.4679 H   0  0  0  0  0  0  0  0  0  0  0  0
    1.8574   -3.5903   -3.2056 H   0  0  0  0  0  0  0  0  0  0  0  0
  1  2  1  0  0  0  0
  1 12  1  0  0  0  0
  1 22  1  0  0  0  0
  1 23  1  0  0  0  0
  2  3  1  0  0  0  0
  2 24  1  0  0  0  0
  2 25  1  0  0  0  0
  3  4  1  0  0  0  0
  3 11  2  0  0  0  0
  4 26  1  0  0  0  0
  4 27  1  0  0  0  0
  5  6  1  0  0  0  0
  5  4  1  0  0  0  0
  5 28  1  6  0  0  0
  5 21  1  0  0  0  0
  6  7  1  0  0  0  0
  6 29  1  0  0  0  0
  6 30  1  0  0  0  0
  7  8  1  0  0  0  0
  7 31  1  0  0  0  0
  7 32  1  0  0  0  0
  8  9  1  0  0  0  0
  8 33  1  0  0  0  0
  8 34  1  0  0  0  0
  9 10  1  0  0  0  0
  9 35  1  0  0  0  0
  9 36  1  0  0  0  0
 10 37  1  0  0  0  0
 10 38  1  0  0  0  0
 10 39  1  0  0  0  0
 12 13  2  0  0  0  0
 12 17  1  0  0  0  0
 13 14  1  0  0  0  0
 13 40  1  0  0  0  0
 14 15  2  0  0  0  0
 14 18  1  0  0  0  0
 15 16  1  0  0  0  0
 15 20  1  0  0  0  0
 16 17  2  0  0  0  0
 16 41  1  0  0  0  0
 17 42  1  0  0  0  0
 18 19  1  0  0  0  0
 19 43  1  0  0  0  0
 19 44  1  0  0  0  0
 19 45  1  0  0  0  0
 20 46  1  0  0  0  0
 21 47  1  0  0  0  0
M  END
>  <Mol_ID>
1783

>  <Formula>
C17H26O4

>  <MolWeight>
294.38594

>  <Cat>
S3836

>  <Name>
6-Gingerol

>  <Synonyms>
N/A

>  <Target>
Apoptosis related

>  <Form>
free base

>  <CAS>
23513-14-6

>  <URL>
http://selleckchem.com/products/6-gingerol.html

$$$$
