S3854 Tetrahydropalmatine hydrochloride.cdx
 OpenBabel08302519513D

 51 54  0  0  0  0  0  0  0  0999 V2000
   -2.1424   -0.2552   -1.2267 C   0  0  3  0  0  0  0  0  0  0  0  0
   -2.0766   -1.5556   -2.0494 C   0  0  0  0  0  0  0  0  0  0  0  0
   -2.4232   -0.6205    0.1924 N   0  0  3  0  0  0  0  0  0  0  0  0
   -1.0129    0.7855   -1.1274 C   0  0  0  0  0  0  0  0  0  0  0  0
   -3.2395   -2.3656   -1.8672 C   0  0  0  0  0  0  0  0  0  0  0  0
   -0.9647   -2.1403   -2.6913 C   0  0  0  0  0  0  0  0  0  0  0  0
   -1.2909   -1.4591    0.7001 C   0  0  0  0  0  0  0  0  0  0  0  0
   -3.7306   -1.3097    0.3087 C   0  0  0  0  0  0  0  0  0  0  0  0
    0.1937    0.2561   -0.4061 C   0  0  0  0  0  0  0  0  0  0  0  0
   -3.2901   -3.7009   -2.2594 C   0  0  0  0  0  0  0  0  0  0  0  0
   -4.3498   -1.7813   -1.0255 C   0  0  0  0  0  0  0  0  0  0  0  0
   -0.9961   -3.5067   -3.0490 C   0  0  0  0  0  0  0  0  0  0  0  0
    0.1012   -0.9705    0.2861 C   0  0  0  0  0  0  0  0  0  0  0  0
    1.3947    0.9655   -0.4693 C   0  0  0  0  0  0  0  0  0  0  0  0
   -2.1439   -4.2966   -2.7883 C   0  0  0  0  0  0  0  0  0  0  0  0
    0.0407   -4.2143   -3.6064 O   0  0  0  0  0  0  0  0  0  0  0  0
    1.3025   -1.6427    0.5814 C   0  0  0  0  0  0  0  0  0  0  0  0
    2.5645    0.3525   -0.0560 C   0  0  0  0  0  0  0  0  0  0  0  0
   -2.0502   -5.6474   -3.0306 O   0  0  0  0  0  0  0  0  0  0  0  0
    1.3383   -3.6481   -3.6330 C   0  0  0  0  0  0  0  0  0  0  0  0
    2.5316   -0.9771    0.3695 C   0  0  0  0  0  0  0  0  0  0  0  0
    1.3691   -2.8907    1.1462 O   0  0  0  0  0  0  0  0  0  0  0  0
   -3.0333   -6.4778   -2.4126 C   0  0  0  0  0  0  0  0  0  0  0  0
    3.7688   -1.5296    0.5963 O   0  0  0  0  0  0  0  0  0  0  0  0
    0.5955   -3.9052    0.5093 C   0  0  0  0  0  0  0  0  0  0  0  0
    3.9803   -2.7340   -0.1386 C   0  0  0  0  0  0  0  0  0  0  0  0
   -2.9818    0.3239   -1.6323 H   0  0  0  0  0  0  0  0  0  0  0  0
   -0.7353    1.1383   -2.1261 H   0  0  0  0  0  0  0  0  0  0  0  0
   -1.3784    1.6556   -0.5596 H   0  0  0  0  0  0  0  0  0  0  0  0
   -0.0637   -1.5517   -2.8055 H   0  0  0  0  0  0  0  0  0  0  0  0
   -1.3346   -1.4614    1.7953 H   0  0  0  0  0  0  0  0  0  0  0  0
   -1.4365   -2.4851    0.3603 H   0  0  0  0  0  0  0  0  0  0  0  0
   -3.6540   -2.1713    0.9872 H   0  0  0  0  0  0  0  0  0  0  0  0
   -4.4383   -0.6212    0.7916 H   0  0  0  0  0  0  0  0  0  0  0  0
   -4.1873   -4.2681   -2.0588 H   0  0  0  0  0  0  0  0  0  0  0  0
   -5.1539   -2.4983   -0.8456 H   0  0  0  0  0  0  0  0  0  0  0  0
   -4.7984   -0.9369   -1.5694 H   0  0  0  0  0  0  0  0  0  0  0  0
    1.4188    1.9802   -0.8594 H   0  0  0  0  0  0  0  0  0  0  0  0
    3.5084    0.8866   -0.1187 H   0  0  0  0  0  0  0  0  0  0  0  0
    1.3601   -2.7127   -4.1951 H   0  0  0  0  0  0  0  0  0  0  0  0
    1.7327   -3.5233   -2.6216 H   0  0  0  0  0  0  0  0  0  0  0  0
    1.9905   -4.3613   -4.1528 H   0  0  0  0  0  0  0  0  0  0  0  0
   -3.1285   -6.2774   -1.3368 H   0  0  0  0  0  0  0  0  0  0  0  0
   -3.9974   -6.3643   -2.9170 H   0  0  0  0  0  0  0  0  0  0  0  0
   -2.7213   -7.5211   -2.5205 H   0  0  0  0  0  0  0  0  0  0  0  0
   -0.2630   -4.1425    1.1446 H   0  0  0  0  0  0  0  0  0  0  0  0
    0.2667   -3.6402   -0.4982 H   0  0  0  0  0  0  0  0  0  0  0  0
    1.2016   -4.8119    0.4234 H   0  0  0  0  0  0  0  0  0  0  0  0
    3.7500   -3.5964    0.4913 H   0  0  0  0  0  0  0  0  0  0  0  0
    3.4099   -2.7756   -1.0741 H   0  0  0  0  0  0  0  0  0  0  0  0
    5.0419   -2.7880   -0.4023 H   0  0  0  0  0  0  0  0  0  0  0  0
  1  2  1  0  0  0  0
  1  3  1  0  0  0  0
  1  4  1  0  0  0  0
  1 27  1  0  0  0  0
  2  5  2  0  0  0  0
  2  6  1  0  0  0  0
  3  7  1  0  0  0  0
  3  8  1  0  0  0  0
  4  9  1  0  0  0  0
  4 28  1  0  0  0  0
  4 29  1  0  0  0  0
  5 10  1  0  0  0  0
  5 11  1  0  0  0  0
  6 12  2  0  0  0  0
  6 30  1  0  0  0  0
  7 13  1  0  0  0  0
  7 31  1  0  0  0  0
  7 32  1  0  0  0  0
  8 11  1  0  0  0  0
  8 33  1  0  0  0  0
  8 34  1  0  0  0  0
  9 14  2  0  0  0  0
  9 13  1  0  0  0  0
 10 15  2  0  0  0  0
 10 35  1  0  0  0  0
 11 36  1  0  0  0  0
 11 37  1  0  0  0  0
 12 16  1  0  0  0  0
 12 15  1  0  0  0  0
 13 17  2  0  0  0  0
 14 18  1  0  0  0  0
 14 38  1  0  0  0  0
 15 19  1  0  0  0  0
 16 20  1  0  0  0  0
 17 21  1  0  0  0  0
 17 22  1  0  0  0  0
 18 21  2  0  0  0  0
 18 39  1  0  0  0  0
 19 23  1  0  0  0  0
 20 40  1  0  0  0  0
 20 41  1  0  0  0  0
 20 42  1  0  0  0  0
 21 24  1  0  0  0  0
 22 25  1  0  0  0  0
 23 43  1  0  0  0  0
 23 44  1  0  0  0  0
 23 45  1  0  0  0  0
 24 26  1  0  0  0  0
 25 46  1  0  0  0  0
 25 47  1  0  0  0  0
 25 48  1  0  0  0  0
 26 49  1  0  0  0  0
 26 50  1  0  0  0  0
 26 51  1  0  0  0  0
M  END
>  <Mol_ID>
1922

>  <Formula>
C21H26ClNO4

>  <MolWeight>
391.88844

>  <Cat>
S3854

>  <Name>
Tetrahydropalmatine hydrochloride

>  <Synonyms>
Gindarine hydrochloride, 1-Tetrahydropalmitine HCl

>  <Target>
ADC Cytotoxin,Dopamine Receptor

>  <Form>
hydrochloride

>  <CAS>
6024-85-7

>  <URL>
http://selleckchem.com/products/tetrahydropalmatine-hydrochloride.html

$$$$
