S3853 Perillyl alcohol.cdx
 OpenBabel08302519563D

 27 27  0  0  0  0  0  0  0  0999 V2000
   -0.2952    1.4110    0.2464 C   0  0  3  0  0  0  0  0  0  0  0  0
   -1.3408    0.4335   -0.3139 C   0  0  0  0  0  0  0  0  0  0  0  0
    1.1352    0.9679   -0.1323 C   0  0  0  0  0  0  0  0  0  0  0  0
   -0.5764    2.8444   -0.1956 C   0  0  0  0  0  0  0  0  0  0  0  0
   -1.0849   -1.0086    0.1335 C   0  0  0  0  0  0  0  0  0  0  0  0
    1.3524   -0.5179   -0.0544 C   0  0  0  0  0  0  0  0  0  0  0  0
   -0.5951    3.1374   -1.6728 C   0  0  0  0  0  0  0  0  0  0  0  0
   -0.8075    3.8375    0.6836 C   0  0  0  0  0  0  0  0  0  0  0  0
    0.3661   -1.4190    0.0756 C   0  0  0  0  0  0  0  0  0  0  0  0
    0.6482   -2.8947    0.1574 C   0  0  0  0  0  0  0  0  0  0  0  0
    0.1556   -3.4057    1.3858 O   0  0  0  0  0  0  0  0  0  0  0  0
   -0.3675    1.3615    1.3433 H   0  0  0  0  0  0  0  0  0  0  0  0
   -2.3479    0.7329    0.0022 H   0  0  0  0  0  0  0  0  0  0  0  0
   -1.3396    0.4595   -1.4106 H   0  0  0  0  0  0  0  0  0  0  0  0
    1.3949    1.2814   -1.1503 H   0  0  0  0  0  0  0  0  0  0  0  0
    1.8487    1.4644    0.5370 H   0  0  0  0  0  0  0  0  0  0  0  0
   -1.4417   -1.1397    1.1616 H   0  0  0  0  0  0  0  0  0  0  0  0
   -1.6847   -1.6714   -0.5028 H   0  0  0  0  0  0  0  0  0  0  0  0
    2.3874   -0.8520   -0.1141 H   0  0  0  0  0  0  0  0  0  0  0  0
   -1.5798    3.5044   -1.9784 H   0  0  0  0  0  0  0  0  0  0  0  0
    0.1615    3.8876   -1.9218 H   0  0  0  0  0  0  0  0  0  0  0  0
   -0.3778    2.2488   -2.2716 H   0  0  0  0  0  0  0  0  0  0  0  0
   -0.8009    3.6701    1.7537 H   0  0  0  0  0  0  0  0  0  0  0  0
   -1.0059    4.8522    0.3458 H   0  0  0  0  0  0  0  0  0  0  0  0
    0.1657   -3.4310   -0.6656 H   0  0  0  0  0  0  0  0  0  0  0  0
    1.7218   -3.1052    0.1092 H   0  0  0  0  0  0  0  0  0  0  0  0
    0.4341   -2.7848    2.0802 H   0  0  0  0  0  0  0  0  0  0  0  0
  1  2  1  0  0  0  0
  1  3  1  0  0  0  0
  1  4  1  0  0  0  0
  1 12  1  0  0  0  0
  2  5  1  0  0  0  0
  2 13  1  0  0  0  0
  2 14  1  0  0  0  0
  3  6  1  0  0  0  0
  3 15  1  0  0  0  0
  3 16  1  0  0  0  0
  4  7  1  0  0  0  0
  4  8  2  0  0  0  0
  5  9  1  0  0  0  0
  5 17  1  0  0  0  0
  5 18  1  0  0  0  0
  6  9  2  0  0  0  0
  6 19  1  0  0  0  0
  7 20  1  0  0  0  0
  7 21  1  0  0  0  0
  7 22  1  0  0  0  0
  8 23  1  0  0  0  0
  8 24  1  0  0  0  0
  9 10  1  0  0  0  0
 10 11  1  0  0  0  0
 10 25  1  0  0  0  0
 10 26  1  0  0  0  0
 11 27  1  0  0  0  0
M  END
>  <Mol_ID>
2231

>  <Formula>
C10H16O

>  <MolWeight>
152.23344

>  <Cat>
S3853

>  <Name>
Perillyl alcohol

>  <Synonyms>
Perilla alcohol, Isocarveol

>  <Target>
Ras

>  <Form>
free base

>  <CAS>
536-59-4

>  <URL>
http://selleckchem.com/products/perillyl-alcohol.html

$$$$
