S3859 Vanillyl Alcohol.cdx
 OpenBabel08302519513D

 21 21  0  0  0  0  0  0  0  0999 V2000
    1.0630    0.0793   -0.0106 C   0  0  0  0  0  0  0  0  0  0  0  0
    0.5909   -1.3420    0.1539 C   0  0  0  0  0  0  0  0  0  0  0  0
   -0.7410   -1.6040    0.5317 C   0  0  0  0  0  0  0  0  0  0  0  0
   -1.1943   -2.9171    0.6655 C   0  0  0  0  0  0  0  0  0  0  0  0
   -0.3036   -3.9653    0.4158 C   0  0  0  0  0  0  0  0  0  0  0  0
    1.0123   -3.7290    0.0407 C   0  0  0  0  0  0  0  0  0  0  0  0
    1.4591   -2.4155   -0.0934 C   0  0  0  0  0  0  0  0  0  0  0  0
   -2.4612   -3.3051    1.0212 O   0  0  0  0  0  0  0  0  0  0  0  0
   -3.3978   -2.2648    1.2725 C   0  0  0  0  0  0  0  0  0  0  0  0
   -0.7165   -5.2656    0.5386 O   0  0  0  0  0  0  0  0  0  0  0  0
    0.9109    0.7954    1.2056 O   0  0  0  0  0  0  0  0  0  0  0  0
    0.4863    0.5807   -0.7943 H   0  0  0  0  0  0  0  0  0  0  0  0
    2.1203    0.1180   -0.2939 H   0  0  0  0  0  0  0  0  0  0  0  0
   -1.3956   -0.7564    0.7125 H   0  0  0  0  0  0  0  0  0  0  0  0
    1.6802   -4.5629   -0.1526 H   0  0  0  0  0  0  0  0  0  0  0  0
    2.4894   -2.2376   -0.3940 H   0  0  0  0  0  0  0  0  0  0  0  0
   -3.0867   -1.6529    2.1258 H   0  0  0  0  0  0  0  0  0  0  0  0
   -3.5555   -1.6503    0.3799 H   0  0  0  0  0  0  0  0  0  0  0  0
   -4.3542   -2.7306    1.5280 H   0  0  0  0  0  0  0  0  0  0  0  0
   -1.6543   -5.2055    0.8048 H   0  0  0  0  0  0  0  0  0  0  0  0
    1.2561    0.2249    1.9144 H   0  0  0  0  0  0  0  0  0  0  0  0
  1  2  1  0  0  0  0
  1 11  1  0  0  0  0
  1 12  1  0  0  0  0
  1 13  1  0  0  0  0
  2  3  2  0  0  0  0
  2  7  1  0  0  0  0
  3  4  1  0  0  0  0
  3 14  1  0  0  0  0
  4  5  2  0  0  0  0
  4  8  1  0  0  0  0
  5  6  1  0  0  0  0
  5 10  1  0  0  0  0
  6  7  2  0  0  0  0
  6 15  1  0  0  0  0
  7 16  1  0  0  0  0
  8  9  1  0  0  0  0
  9 17  1  0  0  0  0
  9 18  1  0  0  0  0
  9 19  1  0  0  0  0
 10 20  1  0  0  0  0
 11 21  1  0  0  0  0
M  END
>  <Mol_ID>
1927

>  <Formula>
C8H10O3

>  <MolWeight>
154.1632

>  <Cat>
S3859

>  <Name>
Vanillyl Alcohol

>  <Synonyms>
4-Hydroxy-3-methoxybenzyl alcohol, Vanillin alcohol, Vanillic alcohol, 3-Methoxy-4-hydroxybenzyl alcohol, 4-Hydroxy-3-methoxybenzenemethanol

>  <Target>
Others

>  <Form>
free base

>  <CAS>
498-00-0

>  <URL>
http://selleckchem.com/products/vanillyl-alcohol.html

$$$$
