S3863 Methyl EudesMate.cdx
 OpenBabel08302519513D

 30 30  0  0  0  0  0  0  0  0999 V2000
    1.4075   -0.3880   -0.1562 C   0  0  0  0  0  0  0  0  0  0  0  0
    0.4438   -1.4111   -0.0485 C   0  0  0  0  0  0  0  0  0  0  0  0
    0.9826    0.9601   -0.0995 C   0  0  0  0  0  0  0  0  0  0  0  0
    2.7550   -0.6465   -0.1921 O   0  0  0  0  0  0  0  0  0  0  0  0
   -0.9139   -1.0866   -0.0436 C   0  0  0  0  0  0  0  0  0  0  0  0
    0.8841   -2.7089    0.0692 O   0  0  0  0  0  0  0  0  0  0  0  0
   -0.3880    1.2621   -0.0243 C   0  0  0  0  0  0  0  0  0  0  0  0
    1.7695    2.0847   -0.0487 O   0  0  0  0  0  0  0  0  0  0  0  0
    3.1681   -1.6442   -1.1285 C   0  0  0  0  0  0  0  0  0  0  0  0
   -1.3408    0.2435   -0.0319 C   0  0  0  0  0  0  0  0  0  0  0  0
   -0.0479   -3.6483    0.6031 C   0  0  0  0  0  0  0  0  0  0  0  0
    3.0342    2.0409   -0.6920 C   0  0  0  0  0  0  0  0  0  0  0  0
   -2.8122    0.4704   -0.0115 C   0  0  0  0  0  0  0  0  0  0  0  0
   -3.1256    1.7845   -0.0846 O   0  0  0  0  0  0  0  0  0  0  0  0
   -3.6179   -0.4492    0.0360 O   0  0  0  0  0  0  0  0  0  0  0  0
   -4.5402    2.0080   -0.1424 C   0  0  0  0  0  0  0  0  0  0  0  0
   -1.6737   -1.8641   -0.0345 H   0  0  0  0  0  0  0  0  0  0  0  0
   -0.6923    2.3065    0.0335 H   0  0  0  0  0  0  0  0  0  0  0  0
    2.3645   -2.0812   -1.7300 H   0  0  0  0  0  0  0  0  0  0  0  0
    3.8763   -1.1846   -1.8257 H   0  0  0  0  0  0  0  0  0  0  0  0
    3.6949   -2.4358   -0.5858 H   0  0  0  0  0  0  0  0  0  0  0  0
   -0.5048   -3.2816    1.5297 H   0  0  0  0  0  0  0  0  0  0  0  0
   -0.8132   -3.8992   -0.1393 H   0  0  0  0  0  0  0  0  0  0  0  0
    0.4940   -4.5675    0.8426 H   0  0  0  0  0  0  0  0  0  0  0  0
    3.7830    1.5488   -0.0647 H   0  0  0  0  0  0  0  0  0  0  0  0
    2.9709    1.5843   -1.6850 H   0  0  0  0  0  0  0  0  0  0  0  0
    3.3636    3.0765   -0.8287 H   0  0  0  0  0  0  0  0  0  0  0  0
   -4.9493    1.5714   -1.0597 H   0  0  0  0  0  0  0  0  0  0  0  0
   -5.0352    1.5880    0.7370 H   0  0  0  0  0  0  0  0  0  0  0  0
   -4.7197    3.0864   -0.1617 H   0  0  0  0  0  0  0  0  0  0  0  0
  1  2  2  0  0  0  0
  1  3  1  0  0  0  0
  1  4  1  0  0  0  0
  2  5  1  0  0  0  0
  2  6  1  0  0  0  0
  3  7  2  0  0  0  0
  3  8  1  0  0  0  0
  4  9  1  0  0  0  0
  5 10  2  0  0  0  0
  5 17  1  0  0  0  0
  6 11  1  0  0  0  0
  7 10  1  0  0  0  0
  7 18  1  0  0  0  0
  8 12  1  0  0  0  0
  9 19  1  0  0  0  0
  9 20  1  0  0  0  0
  9 21  1  0  0  0  0
 10 13  1  0  0  0  0
 11 22  1  0  0  0  0
 11 23  1  0  0  0  0
 11 24  1  0  0  0  0
 12 25  1  0  0  0  0
 12 26  1  0  0  0  0
 12 27  1  0  0  0  0
 13 14  1  0  0  0  0
 13 15  2  0  0  0  0
 14 16  1  0  0  0  0
 16 28  1  0  0  0  0
 16 29  1  0  0  0  0
 16 30  1  0  0  0  0
M  END
>  <Mol_ID>
1912

>  <Formula>
C11H14O5

>  <MolWeight>
226.22586

>  <Cat>
S3863

>  <Name>
Methyl EudesMate

>  <Synonyms>
3,4,5-Trimethoxybenzoic acid methyl ester; Trimethylgallic acid methyl ester; Methyl tri-O-methylgallate; Methyl gallate trimethyl ether

>  <Target>
Others

>  <Form>
free base

>  <CAS>
1916-07-0

>  <URL>
http://selleckchem.com/products/methyl-eudesMate.html

$$$$
