S3875 Alpinetin.cdx
 OpenBabel08302519513D

 34 36  0  0  0  0  0  0  0  0999 V2000
   -0.0760    0.6348   -0.0003 C   0  0  0  0  0  0  0  0  0  0  0  0
   -0.0872   -0.7788   -0.0936 C   0  0  0  0  0  0  0  0  0  0  0  0
   -1.2059    1.4232    0.0486 O   0  0  0  0  0  0  0  0  0  0  0  0
    1.1220    1.3471    0.0748 C   0  0  0  0  0  0  0  0  0  0  0  0
    1.1366   -1.4717   -0.1080 C   0  0  0  0  0  0  0  0  0  0  0  0
   -1.4467   -1.3683   -0.1765 C   0  0  0  0  0  0  0  0  0  0  0  0
   -2.4225    0.7533   -0.3252 C   0  0  1  0  0  0  0  0  0  0  0  0
    2.3225    0.6592    0.0365 C   0  0  0  0  0  0  0  0  0  0  0  0
    2.3318   -0.7244   -0.0489 C   0  0  0  0  0  0  0  0  0  0  0  0
    1.4319   -2.8047   -0.1353 O   0  0  0  0  0  0  0  0  0  0  0  0
   -2.5327   -0.5456    0.4424 C   0  0  0  0  0  0  0  0  0  0  0  0
   -1.7184   -2.3785   -0.8109 O   0  0  0  0  0  0  0  0  0  0  0  0
   -3.6207    1.6482   -0.0910 C   0  0  0  0  0  0  0  0  0  0  0  0
    3.4808    1.3756    0.0943 O   0  0  0  0  0  0  0  0  0  0  0  0
    0.4238   -3.7959   -0.1138 C   0  0  0  0  0  0  0  0  0  0  0  0
   -4.7657    1.4850   -0.8900 C   0  0  0  0  0  0  0  0  0  0  0  0
   -3.6144    2.6566    0.8809 C   0  0  0  0  0  0  0  0  0  0  0  0
   -5.8458    2.3591   -0.7711 C   0  0  0  0  0  0  0  0  0  0  0  0
   -4.6970    3.5289    0.9997 C   0  0  0  0  0  0  0  0  0  0  0  0
   -5.8033    3.3921    0.1629 C   0  0  0  0  0  0  0  0  0  0  0  0
    1.1173    2.4301    0.1499 H   0  0  0  0  0  0  0  0  0  0  0  0
   -2.3620    0.5782   -1.4104 H   0  0  0  0  0  0  0  0  0  0  0  0
    3.2787   -1.2631   -0.0615 H   0  0  0  0  0  0  0  0  0  0  0  0
   -2.3438   -0.4391    1.5167 H   0  0  0  0  0  0  0  0  0  0  0  0
   -3.4957   -1.0475    0.3035 H   0  0  0  0  0  0  0  0  0  0  0  0
    4.2376    0.7666    0.0447 H   0  0  0  0  0  0  0  0  0  0  0  0
   -0.2766   -3.6499    0.7135 H   0  0  0  0  0  0  0  0  0  0  0  0
   -0.0592   -3.8653   -1.0909 H   0  0  0  0  0  0  0  0  0  0  0  0
    0.9126   -4.7611    0.0511 H   0  0  0  0  0  0  0  0  0  0  0  0
   -4.8137    0.6875   -1.6299 H   0  0  0  0  0  0  0  0  0  0  0  0
   -2.7537    2.7887    1.5329 H   0  0  0  0  0  0  0  0  0  0  0  0
   -6.7116    2.2455   -1.4178 H   0  0  0  0  0  0  0  0  0  0  0  0
   -4.6680    4.3295    1.7339 H   0  0  0  0  0  0  0  0  0  0  0  0
   -6.6296    4.0929    0.2355 H   0  0  0  0  0  0  0  0  0  0  0  0
  1  2  2  0  0  0  0
  1  3  1  0  0  0  0
  1  4  1  0  0  0  0
  2  5  1  0  0  0  0
  2  6  1  0  0  0  0
  3  7  1  0  0  0  0
  4  8  2  0  0  0  0
  4 21  1  0  0  0  0
  5  9  2  0  0  0  0
  5 10  1  0  0  0  0
  6 11  1  0  0  0  0
  6 12  2  0  0  0  0
  7 11  1  0  0  0  0
  7 22  1  6  0  0  0
  7 13  1  0  0  0  0
  8 14  1  0  0  0  0
  8  9  1  0  0  0  0
  9 23  1  0  0  0  0
 10 15  1  0  0  0  0
 11 24  1  0  0  0  0
 11 25  1  0  0  0  0
 13 16  2  0  0  0  0
 13 17  1  0  0  0  0
 14 26  1  0  0  0  0
 15 27  1  0  0  0  0
 15 28  1  0  0  0  0
 15 29  1  0  0  0  0
 16 18  1  0  0  0  0
 16 30  1  0  0  0  0
 17 19  2  0  0  0  0
 17 31  1  0  0  0  0
 18 20  2  0  0  0  0
 18 32  1  0  0  0  0
 19 20  1  0  0  0  0
 19 33  1  0  0  0  0
 20 34  1  0  0  0  0
M  END
>  <Mol_ID>
1836

>  <Formula>
C16H14O4

>  <MolWeight>
270.27996

>  <Cat>
S3875

>  <Name>
Alpinetin

>  <Synonyms>
N/A

>  <Target>
PPAR

>  <Form>
free base

>  <CAS>
36052-37-6

>  <URL>
http://selleckchem.com/products/alpinetin.html

$$$$
