S3882 Brassinolide.cdx
 OpenBabel08302519553D

 82 85  0  0  0  0  0  0  0  0999 V2000
    2.3553    1.7508   -0.5694 C   0  0  1  0  0  0  0  0  0  0  0  0
    0.8508    1.5998   -0.8083 C   0  0  1  0  0  0  0  0  0  0  0  0
    2.6815    0.4046    0.1790 C   0  0  1  0  0  0  0  0  0  0  0  0
    3.1824    2.1480   -1.8002 C   0  0  0  0  0  0  0  0  0  0  0  0
    0.0630    1.5570    0.5472 C   0  0  1  0  0  0  0  0  0  0  0  0
    0.0099    2.4970   -1.7093 C   0  0  0  0  0  0  0  0  0  0  0  0
    4.0155   -0.3356   -0.0944 C   0  0  2  0  0  0  0  0  0  0  0  0
    2.1867    0.5593    1.6212 C   0  0  0  0  0  0  0  0  0  0  0  0
    3.3079    1.1551   -2.8104 O   0  0  0  0  0  0  0  0  0  0  0  0
   -1.2967    1.1593   -0.0817 C   0  0  2  0  0  0  0  0  0  0  0  0
    0.6527    0.5470    1.5592 C   0  0  0  0  0  0  0  0  0  0  0  0
    0.0389    2.9443    1.2459 C   0  0  0  0  0  0  0  0  0  0  0  0
   -1.4325    2.2189   -1.2160 C   0  0  0  0  0  0  0  0  0  0  0  0
    3.8929   -0.7845   -1.5984 C   0  0  1  0  0  0  0  0  0  0  0  0
    4.0479   -1.6193    0.7742 C   0  0  0  0  0  0  0  0  0  0  0  0
    5.2149    0.5602    0.2731 C   0  0  0  0  0  0  0  0  0  0  0  0
    4.3213    0.2725   -2.5831 C   0  0  0  0  0  0  0  0  0  0  0  0
   -2.5426    0.9802    0.8039 C   0  0  1  0  0  0  0  0  0  0  0  0
    4.3588   -2.1987   -1.9434 C   0  0  0  0  0  0  0  0  0  0  0  0
    5.1589   -2.6079    0.4504 C   0  0  2  0  0  0  0  0  0  0  0  0
    5.4011    0.3102   -3.1664 O   0  0  0  0  0  0  0  0  0  0  0  0
   -3.7676    0.5752   -0.0642 C   0  0  2  0  0  0  0  0  0  0  0  0
   -2.3360   -0.0557    1.9260 C   0  0  0  0  0  0  0  0  0  0  0  0
    5.4577   -2.7406   -1.0503 C   0  0  1  0  0  0  0  0  0  0  0  0
    4.7533   -3.8825    0.9791 O   0  0  0  0  0  0  0  0  0  0  0  0
   -5.0466    0.3469    0.7676 C   0  0  1  0  0  0  0  0  0  0  0  0
   -3.5069   -0.6419   -0.7884 O   0  0  0  0  0  0  0  0  0  0  0  0
    5.6418   -4.1234   -1.3744 O   0  0  0  0  0  0  0  0  0  0  0  0
   -5.3992    1.5221    1.7164 C   0  0  2  0  0  0  0  0  0  0  0  0
   -6.1297    0.0757   -0.1291 O   0  0  0  0  0  0  0  0  0  0  0  0
   -6.6732    1.2134    2.5514 C   0  0  0  0  0  0  0  0  0  0  0  0
   -5.4986    2.8518    0.9488 C   0  0  0  0  0  0  0  0  0  0  0  0
   -6.4442    0.0183    3.4913 C   0  0  0  0  0  0  0  0  0  0  0  0
   -7.1256    2.4053    3.4003 C   0  0  0  0  0  0  0  0  0  0  0  0
    2.5059    2.5870    0.1267 H   0  0  0  0  0  0  0  0  0  0  0  0
    0.7468    0.6247   -1.3167 H   0  0  0  0  0  0  0  0  0  0  0  0
    1.9761   -0.3529   -0.1943 H   0  0  0  0  0  0  0  0  0  0  0  0
    4.1756    2.4861   -1.4850 H   0  0  0  0  0  0  0  0  0  0  0  0
    2.7224    3.0247   -2.2725 H   0  0  0  0  0  0  0  0  0  0  0  0
    0.1158    2.2092   -2.7617 H   0  0  0  0  0  0  0  0  0  0  0  0
    0.2656    3.5569   -1.6287 H   0  0  0  0  0  0  0  0  0  0  0  0
    2.4859   -0.2580    2.2791 H   0  0  0  0  0  0  0  0  0  0  0  0
    2.5627    1.4801    2.0798 H   0  0  0  0  0  0  0  0  0  0  0  0
   -1.1486    0.1827   -0.5689 H   0  0  0  0  0  0  0  0  0  0  0  0
    0.2958    0.7450    2.5739 H   0  0  0  0  0  0  0  0  0  0  0  0
    0.3318   -0.4697    1.2965 H   0  0  0  0  0  0  0  0  0  0  0  0
   -0.9110    3.1236    1.7560 H   0  0  0  0  0  0  0  0  0  0  0  0
    0.2088    3.7769    0.5580 H   0  0  0  0  0  0  0  0  0  0  0  0
    0.8239    3.0266    2.0061 H   0  0  0  0  0  0  0  0  0  0  0  0
   -1.8772    3.1454   -0.8330 H   0  0  0  0  0  0  0  0  0  0  0  0
   -2.0630    1.8619   -2.0359 H   0  0  0  0  0  0  0  0  0  0  0  0
    2.8241   -0.8841   -1.8486 H   0  0  0  0  0  0  0  0  0  0  0  0
    4.1503   -1.3612    1.8433 H   0  0  0  0  0  0  0  0  0  0  0  0
    3.0809   -2.1330    0.7005 H   0  0  0  0  0  0  0  0  0  0  0  0
    5.7447    0.9583   -0.5932 H   0  0  0  0  0  0  0  0  0  0  0  0
    5.9561    0.0284    0.8763 H   0  0  0  0  0  0  0  0  0  0  0  0
    4.8966    1.4186    0.8789 H   0  0  0  0  0  0  0  0  0  0  0  0
   -2.7498    1.9436    1.2789 H   0  0  0  0  0  0  0  0  0  0  0  0
    3.4927   -2.8740   -1.8626 H   0  0  0  0  0  0  0  0  0  0  0  0
    4.6584   -2.2731   -2.9961 H   0  0  0  0  0  0  0  0  0  0  0  0
    6.0832   -2.3310    0.9671 H   0  0  0  0  0  0  0  0  0  0  0  0
   -3.9732    1.3306   -0.8297 H   0  0  0  0  0  0  0  0  0  0  0  0
   -2.0263   -1.0277    1.5283 H   0  0  0  0  0  0  0  0  0  0  0  0
   -3.2356   -0.2171    2.5239 H   0  0  0  0  0  0  0  0  0  0  0  0
   -1.6093    0.2835    2.6601 H   0  0  0  0  0  0  0  0  0  0  0  0
    6.3860   -2.2147   -1.2873 H   0  0  0  0  0  0  0  0  0  0  0  0
    4.6534   -3.7733    1.9426 H   0  0  0  0  0  0  0  0  0  0  0  0
   -4.9205   -0.5791    1.3366 H   0  0  0  0  0  0  0  0  0  0  0  0
   -3.0321   -0.3918   -1.6024 H   0  0  0  0  0  0  0  0  0  0  0  0
    5.1533   -4.6104   -0.6741 H   0  0  0  0  0  0  0  0  0  0  0  0
   -4.5805    1.6446    2.4365 H   0  0  0  0  0  0  0  0  0  0  0  0
   -5.8612   -0.7402   -0.5966 H   0  0  0  0  0  0  0  0  0  0  0  0
   -7.4929    0.9627    1.8678 H   0  0  0  0  0  0  0  0  0  0  0  0
   -6.4089    2.9005    0.3459 H   0  0  0  0  0  0  0  0  0  0  0  0
   -5.4843    3.6995    1.6411 H   0  0  0  0  0  0  0  0  0  0  0  0
   -4.6451    3.0182    0.2855 H   0  0  0  0  0  0  0  0  0  0  0  0
   -7.3315   -0.1708    4.1035 H   0  0  0  0  0  0  0  0  0  0  0  0
   -6.2337   -0.9048    2.9448 H   0  0  0  0  0  0  0  0  0  0  0  0
   -5.6024    0.2072    4.1681 H   0  0  0  0  0  0  0  0  0  0  0  0
   -8.0842    2.1838    3.8802 H   0  0  0  0  0  0  0  0  0  0  0  0
   -6.3952    2.6317    4.1845 H   0  0  0  0  0  0  0  0  0  0  0  0
   -7.2771    3.3063    2.8007 H   0  0  0  0  0  0  0  0  0  0  0  0
  1  2  1  0  0  0  0
  1  3  1  0  0  0  0
  1  4  1  0  0  0  0
  1 35  1  1  0  0  0
  2  5  1  0  0  0  0
  2  6  1  0  0  0  0
  2 36  1  6  0  0  0
  3  7  1  0  0  0  0
  3  8  1  0  0  0  0
  3 37  1  6  0  0  0
  4  9  1  0  0  0  0
  4 38  1  0  0  0  0
  4 39  1  0  0  0  0
  5 10  1  0  0  0  0
  5 11  1  0  0  0  0
  5 12  1  1  0  0  0
  6 13  1  0  0  0  0
  6 40  1  0  0  0  0
  6 41  1  0  0  0  0
  7 14  1  0  0  0  0
  7 15  1  0  0  0  0
  7 16  1  1  0  0  0
  8 11  1  0  0  0  0
  8 42  1  0  0  0  0
  8 43  1  0  0  0  0
  9 17  1  0  0  0  0
 10 18  1  0  0  0  0
 10 13  1  0  0  0  0
 10 44  1  6  0  0  0
 11 45  1  0  0  0  0
 11 46  1  0  0  0  0
 12 47  1  0  0  0  0
 12 48  1  0  0  0  0
 12 49  1  0  0  0  0
 13 50  1  0  0  0  0
 13 51  1  0  0  0  0
 14 19  1  0  0  0  0
 14 17  1  0  0  0  0
 14 52  1  6  0  0  0
 15 20  1  0  0  0  0
 15 53  1  0  0  0  0
 15 54  1  0  0  0  0
 16 55  1  0  0  0  0
 16 56  1  0  0  0  0
 16 57  1  0  0  0  0
 17 21  2  0  0  0  0
 18 22  1  0  0  0  0
 18 23  1  0  0  0  0
 18 58  1  1  0  0  0
 19 24  1  0  0  0  0
 19 59  1  0  0  0  0
 19 60  1  0  0  0  0
 20 25  1  0  0  0  0
 20 24  1  0  0  0  0
 20 61  1  1  0  0  0
 22 26  1  0  0  0  0
 22 27  1  0  0  0  0
 22 62  1  6  0  0  0
 23 63  1  0  0  0  0
 23 64  1  0  0  0  0
 23 65  1  0  0  0  0
 24 28  1  0  0  0  0
 24 66  1  6  0  0  0
 25 67  1  0  0  0  0
 26 29  1  0  0  0  0
 26 30  1  0  0  0  0
 26 68  1  1  0  0  0
 27 69  1  0  0  0  0
 28 70  1  0  0  0  0
 29 31  1  0  0  0  0
 29 32  1  0  0  0  0
 29 71  1  1  0  0  0
 30 72  1  0  0  0  0
 31 33  1  0  0  0  0
 31 34  1  0  0  0  0
 31 73  1  0  0  0  0
 32 74  1  0  0  0  0
 32 75  1  0  0  0  0
 32 76  1  0  0  0  0
 33 77  1  0  0  0  0
 33 78  1  0  0  0  0
 33 79  1  0  0  0  0
 34 80  1  0  0  0  0
 34 81  1  0  0  0  0
 34 82  1  0  0  0  0
M  END
>  <Mol_ID>
2107

>  <Formula>
C28H48O6

>  <MolWeight>
480.67712

>  <Cat>
S3882

>  <Name>
Brassinolide

>  <Synonyms>
N/A

>  <Target>
Others

>  <Form>
free base

>  <CAS>
72962-43-7

>  <URL>
http://selleckchem.com/products/brassinolide.html

$$$$
