S3886 Quinic acid.cdx
 OpenBabel08302519513D

 25 25  0  0  0  0  0  0  0  0999 V2000
    0.7983    1.2647   -0.2190 C   0  0  1  0  0  0  0  0  0  0  0  0
    1.4667    2.5187    0.3698 C   0  0  0  0  0  0  0  0  0  0  0  0
    1.5149   -0.0042    0.2468 C   0  0  0  0  0  0  0  0  0  0  0  0
   -0.6822    1.2659    0.1863 C   0  0  0  0  0  0  0  0  0  0  0  0
    0.8557    1.3463   -1.6600 O   0  0  0  0  0  0  0  0  0  0  0  0
    1.3529    3.5856   -0.4610 O   0  0  0  0  0  0  0  0  0  0  0  0
    2.0319    2.5761    1.4492 O   0  0  0  0  0  0  0  0  0  0  0  0
    0.8017   -1.2832   -0.1909 C   0  0  2  0  0  0  0  0  0  0  0  0
   -1.3970   -0.0067   -0.2668 C   0  0  2  0  0  0  0  0  0  0  0  0
   -0.6809   -1.2739    0.2246 C   0  0  1  0  0  0  0  0  0  0  0  0
    1.4712   -2.3850    0.4274 O   0  0  0  0  0  0  0  0  0  0  0  0
   -1.4990   -0.0577   -1.7004 O   0  0  0  0  0  0  0  0  0  0  0  0
   -1.3489   -2.4169   -0.3268 O   0  0  0  0  0  0  0  0  0  0  0  0
    2.5440   -0.0265   -0.1357 H   0  0  0  0  0  0  0  0  0  0  0  0
    1.6128   -0.0089    1.3420 H   0  0  0  0  0  0  0  0  0  0  0  0
   -0.7741    1.3690    1.2725 H   0  0  0  0  0  0  0  0  0  0  0  0
   -1.1819    2.1283   -0.2710 H   0  0  0  0  0  0  0  0  0  0  0  0
    1.7850    1.1845   -1.9239 H   0  0  0  0  0  0  0  0  0  0  0  0
    0.8671    3.3335   -1.2770 H   0  0  0  0  0  0  0  0  0  0  0  0
    0.8808   -1.4261   -1.2760 H   0  0  0  0  0  0  0  0  0  0  0  0
   -2.4291   -0.0061    0.1019 H   0  0  0  0  0  0  0  0  0  0  0  0
   -0.7579   -1.3560    1.3162 H   0  0  0  0  0  0  0  0  0  0  0  0
    2.2890   -2.5606   -0.0684 H   0  0  0  0  0  0  0  0  0  0  0  0
   -0.7557    0.4536   -2.0804 H   0  0  0  0  0  0  0  0  0  0  0  0
   -1.6168   -2.1580   -1.2331 H   0  0  0  0  0  0  0  0  0  0  0  0
  1  2  1  1  0  0  0
  1  3  1  0  0  0  0
  1  4  1  0  0  0  0
  1  5  1  0  0  0  0
  2  6  1  0  0  0  0
  2  7  2  0  0  0  0
  3  8  1  0  0  0  0
  3 14  1  0  0  0  0
  3 15  1  0  0  0  0
  4  9  1  0  0  0  0
  4 16  1  0  0  0  0
  4 17  1  0  0  0  0
  5 18  1  0  0  0  0
  6 19  1  0  0  0  0
  8 10  1  0  0  0  0
  8 20  1  6  0  0  0
  8 11  1  0  0  0  0
  9 12  1  0  0  0  0
  9 10  1  0  0  0  0
  9 21  1  1  0  0  0
 10 13  1  0  0  0  0
 10 22  1  1  0  0  0
 11 23  1  0  0  0  0
 12 24  1  0  0  0  0
 13 25  1  0  0  0  0
M  END
>  <Mol_ID>
1829

>  <Formula>
C7H12O6

>  <MolWeight>
192.16658

>  <Cat>
S3886

>  <Name>
Quinic acid

>  <Synonyms>
Chinic acid, Kinic acid

>  <Target>
NF-¦ÊB

>  <Form>
free base

>  <CAS>
77-95-2

>  <URL>
http://selleckchem.com/products/quinic-acid.html

$$$$
