S3883 Protopine.cdx
 OpenBabel08302519513D

 45 49  0  0  0  0  0  0  0  0999 V2000
   -1.6576    0.4725   -0.1601 C   0  0  0  0  0  0  0  0  0  0  0  0
   -1.5668   -0.8557    1.0645 C   0  0  0  0  0  0  0  0  0  0  0  0
   -0.1312    1.1736   -0.8632 C   0  0  0  0  0  0  0  0  0  0  0  0
    0.0124   -1.8427    1.1615 C   0  0  0  0  0  0  0  0  0  0  0  0
    1.4402    0.3409   -0.5581 C   0  0  0  0  0  0  0  0  0  0  0  0
    1.5338   -1.2049    0.3452 C   0  0  0  0  0  0  0  0  0  0  0  0
    2.6864    0.6517   -0.9703 O   0  0  0  0  0  0  0  0  0  0  0  0
    2.8364   -1.5507    0.3201 O   0  0  0  0  0  0  0  0  0  0  0  0
    3.4484   -0.2801   -0.1014 C   0  0  0  0  0  0  0  0  0  0  0  0
   -1.7288    0.5604    2.0957 C   0  0  0  0  0  0  0  0  0  0  0  0
   -0.4800    1.3207    1.7118 C   0  0  0  0  0  0  0  0  0  0  0  0
   -3.4703   -1.2984   -0.8326 C   0  0  0  0  0  0  0  0  0  0  0  0
   -2.9387    0.1805   -0.8753 C   0  0  0  0  0  0  0  0  0  0  0  0
    0.2089    0.1641    1.0723 N   0  0  0  0  0  0  0  0  0  0  0  0
   -0.2590   -0.9617   -0.6501 C   0  0  0  0  0  0  0  0  0  0  0  0
   -1.0893   -2.3763   -0.9375 C   0  0  0  0  0  0  0  0  0  0  0  0
   -2.4928   -2.4961   -0.8436 C   0  0  0  0  0  0  0  0  0  0  0  0
   -0.3008   -3.5322   -1.0761 C   0  0  0  0  0  0  0  0  0  0  0  0
   -0.7909   -4.7707   -0.7714 C   0  0  0  0  0  0  0  0  0  0  0  0
   -2.1288   -4.9414   -0.5064 C   0  0  0  0  0  0  0  0  0  0  0  0
   -2.9839   -3.8146   -0.6010 C   0  0  0  0  0  0  0  0  0  0  0  0
    1.0511   -3.5627   -1.2745 O   0  0  0  0  0  0  0  0  0  0  0  0
    1.3671   -4.8359   -0.6986 C   0  0  0  0  0  0  0  0  0  0  0  0
    0.2052   -5.6921   -0.6193 O   0  0  0  0  0  0  0  0  0  0  0  0
   -3.6015    1.1234   -1.2976 O   0  0  0  0  0  0  0  0  0  0  0  0
    0.7883   -0.4193    2.6476 C   0  0  0  0  0  0  0  0  0  0  0  0
   -0.2047    1.9936   -1.5815 H   0  0  0  0  0  0  0  0  0  0  0  0
    0.0062   -2.8553    1.5712 H   0  0  0  0  0  0  0  0  0  0  0  0
    3.7074    0.2746    0.8177 H   0  0  0  0  0  0  0  0  0  0  0  0
    4.3862   -0.4936   -0.6244 H   0  0  0  0  0  0  0  0  0  0  0  0
   -2.6032    1.1589    1.7954 H   0  0  0  0  0  0  0  0  0  0  0  0
   -1.8492    0.2839    3.1372 H   0  0  0  0  0  0  0  0  0  0  0  0
    0.0950    1.7065    2.5741 H   0  0  0  0  0  0  0  0  0  0  0  0
   -0.5491    2.2395    1.1082 H   0  0  0  0  0  0  0  0  0  0  0  0
   -4.0762   -1.3874    0.0825 H   0  0  0  0  0  0  0  0  0  0  0  0
   -4.1470   -1.4295   -1.6848 H   0  0  0  0  0  0  0  0  0  0  0  0
    0.6174   -1.2559   -1.3069 H   0  0  0  0  0  0  0  0  0  0  0  0
   -0.6977   -0.4790   -1.5788 H   0  0  0  0  0  0  0  0  0  0  0  0
   -2.5005   -5.9138   -0.1959 H   0  0  0  0  0  0  0  0  0  0  0  0
   -4.0412   -3.9708   -0.3873 H   0  0  0  0  0  0  0  0  0  0  0  0
    2.1519   -5.3214   -1.2880 H   0  0  0  0  0  0  0  0  0  0  0  0
    1.7629   -4.6576    0.3130 H   0  0  0  0  0  0  0  0  0  0  0  0
    0.0173   -0.2276    3.4143 H   0  0  0  0  0  0  0  0  0  0  0  0
    0.9944   -1.4889    2.8480 H   0  0  0  0  0  0  0  0  0  0  0  0
    1.6921    0.1280    2.8984 H   0  0  0  0  0  0  0  0  0  0  0  0
  1  2  1  0  0  0  0
  1  3  2  0  0  0  0
  2  4  2  0  0  0  0
  2 10  1  0  0  0  0
  3  5  1  0  0  0  0
  3 27  1  0  0  0  0
  4  6  1  0  0  0  0
  4 28  1  0  0  0  0
  5  7  1  0  0  0  0
  5  6  2  0  0  0  0
  6  8  1  0  0  0  0
  7  9  1  0  0  0  0
  8  9  1  0  0  0  0
  9 29  1  0  0  0  0
  9 30  1  0  0  0  0
 10 11  1  0  0  0  0
 10 31  1  0  0  0  0
 10 32  1  0  0  0  0
 11 14  1  0  0  0  0
 11 33  1  0  0  0  0
 11 34  1  0  0  0  0
 12 13  1  0  0  0  0
 12 35  1  0  0  0  0
 12 36  1  0  0  0  0
 13  1  1  0  0  0  0
 13 25  2  0  0  0  0
 14 15  1  0  0  0  0
 14 26  1  0  0  0  0
 15 16  1  0  0  0  0
 15 37  1  0  0  0  0
 15 38  1  0  0  0  0
 16 17  2  0  0  0  0
 16 18  1  0  0  0  0
 17 12  1  0  0  0  0
 18 19  2  0  0  0  0
 18 22  1  0  0  0  0
 19 20  1  0  0  0  0
 20 21  2  0  0  0  0
 20 39  1  0  0  0  0
 21 17  1  0  0  0  0
 21 40  1  0  0  0  0
 22 23  1  0  0  0  0
 23 24  1  0  0  0  0
 23 41  1  0  0  0  0
 23 42  1  0  0  0  0
 24 19  1  0  0  0  0
 26 43  1  0  0  0  0
 26 44  1  0  0  0  0
 26 45  1  0  0  0  0
M  END
>  <Mol_ID>
1840

>  <Formula>
C20H19NO5

>  <MolWeight>
353.36856

>  <Cat>
S3883

>  <Name>
Protopine

>  <Synonyms>
Corydinine, Fumarine, Biflorine, Macleyine

>  <Target>
ADC Cytotoxin,Calcium Channel

>  <Form>
free base

>  <CAS>
130-86-9

>  <URL>
http://selleckchem.com/products/protopine.html

$$$$
