S3892 Isopsoralen.cdx
 OpenBabel08302519513D

 20 22  0  0  0  0  0  0  0  0999 V2000
   -0.4898    0.3959   -0.0001 C   0  0  0  0  0  0  0  0  0  0  0  0
    0.9104    0.5279   -0.0004 C   0  0  0  0  0  0  0  0  0  0  0  0
   -1.0727   -0.8810    0.0010 C   0  0  0  0  0  0  0  0  0  0  0  0
   -1.3114    1.5499   -0.0005 O   0  0  0  0  0  0  0  0  0  0  0  0
    1.6691   -0.6359    0.0001 C   0  0  0  0  0  0  0  0  0  0  0  0
    1.8480    1.5960   -0.0010 C   0  0  0  0  0  0  0  0  0  0  0  0
   -0.2637   -2.0231    0.0019 C   0  0  0  0  0  0  0  0  0  0  0  0
   -2.5232   -0.9954    0.0012 C   0  0  0  0  0  0  0  0  0  0  0  0
   -2.6963    1.4610   -0.0001 C   0  0  0  0  0  0  0  0  0  0  0  0
    1.1335   -1.9222    0.0016 C   0  0  0  0  0  0  0  0  0  0  0  0
    2.9975   -0.3370   -0.0002 O   0  0  0  0  0  0  0  0  0  0  0  0
    3.0977    1.0178   -0.0007 C   0  0  0  0  0  0  0  0  0  0  0  0
   -3.2763    0.1080    0.0006 C   0  0  0  0  0  0  0  0  0  0  0  0
   -3.4200    2.4501   -0.0004 O   0  0  0  0  0  0  0  0  0  0  0  0
    1.6372    2.6563   -0.0012 H   0  0  0  0  0  0  0  0  0  0  0  0
   -0.7117   -3.0150    0.0027 H   0  0  0  0  0  0  0  0  0  0  0  0
   -2.9759   -1.9811    0.0016 H   0  0  0  0  0  0  0  0  0  0  0  0
    1.7731   -2.7974    0.0023 H   0  0  0  0  0  0  0  0  0  0  0  0
    4.1055    1.4092   -0.0005 H   0  0  0  0  0  0  0  0  0  0  0  0
   -4.3587    0.0576    0.0007 H   0  0  0  0  0  0  0  0  0  0  0  0
  1  2  2  0  0  0  0
  1  3  1  0  0  0  0
  1  4  1  0  0  0  0
  2  5  1  0  0  0  0
  2  6  1  0  0  0  0
  3  7  2  0  0  0  0
  3  8  1  0  0  0  0
  4  9  1  0  0  0  0
  5 10  2  0  0  0  0
  5 11  1  0  0  0  0
  6 12  2  0  0  0  0
  6 15  1  0  0  0  0
  7 10  1  0  0  0  0
  7 16  1  0  0  0  0
  8 13  2  0  0  0  0
  8 17  1  0  0  0  0
  9 14  2  0  0  0  0
  9 13  1  0  0  0  0
 10 18  1  0  0  0  0
 11 12  1  0  0  0  0
 12 19  1  0  0  0  0
 13 20  1  0  0  0  0
M  END
>  <Mol_ID>
1833

>  <Formula>
C11H6O3

>  <MolWeight>
186.16354

>  <Cat>
S3892

>  <Name>
Isopsoralen

>  <Synonyms>
angelicin

>  <Target>
ADC Cytotoxin,Immunology & Inflammation related

>  <Form>
free base

>  <CAS>
523-50-2

>  <URL>
http://selleckchem.com/products/isopsoralen.html

$$$$
