S3903 Lycorine.cdx
 OpenBabel08302519513D

 38 42  0  0  0  0  0  0  0  0999 V2000
    1.0576   -2.4401   -5.0796 C   0  0  0  0  0  0  0  0  0  0  0  0
    0.5238   -3.6692   -5.3737 C   0  0  0  0  0  0  0  0  0  0  0  0
   -0.5025   -4.2349   -4.6301 C   0  0  0  0  0  0  0  0  0  0  0  0
   -1.0851   -3.4423   -3.6372 C   0  0  0  0  0  0  0  0  0  0  0  0
   -0.5609   -2.1073   -3.4041 C   0  0  0  0  0  0  0  0  0  0  0  0
    0.5583   -1.6400   -4.0983 C   0  0  0  0  0  0  0  0  0  0  0  0
    2.0573   -2.0657   -5.9212 O   0  0  0  0  0  0  0  0  0  0  0  0
    1.7789   -2.9966   -6.9746 C   0  0  0  0  0  0  0  0  0  0  0  0
    1.1200   -4.1886   -6.4792 O   0  0  0  0  0  0  0  0  0  0  0  0
   -2.1952   -4.0420   -2.6994 C   0  0  0  0  0  0  0  0  0  0  0  0
   -2.7755   -3.0312   -1.7820 N   0  0  3  0  0  0  0  0  0  0  0  0
   -1.6442   -2.2410   -1.3406 C   0  0  1  0  0  0  0  0  0  0  0  0
   -1.2731   -1.2245   -2.3993 C   0  0  1  0  0  0  0  0  0  0  0  0
   -1.8612   -1.7389    0.0301 C   0  0  0  0  0  0  0  0  0  0  0  0
   -0.7790   -1.1380    0.5608 C   0  0  0  0  0  0  0  0  0  0  0  0
    0.2277   -0.5520   -0.4382 C   0  0  1  0  0  0  0  0  0  0  0  0
   -0.5647   -0.0495   -1.6888 C   0  0  1  0  0  0  0  0  0  0  0  0
   -3.1681   -2.2982    0.4711 C   0  0  0  0  0  0  0  0  0  0  0  0
   -3.3826   -3.4845   -0.5160 C   0  0  0  0  0  0  0  0  0  0  0  0
    0.8779    0.5691    0.1467 O   0  0  0  0  0  0  0  0  0  0  0  0
    0.1964    0.7839   -2.5569 O   0  0  0  0  0  0  0  0  0  0  0  0
   -0.8429   -5.2387   -4.8450 H   0  0  0  0  0  0  0  0  0  0  0  0
    1.0110   -0.6715   -3.9329 H   0  0  0  0  0  0  0  0  0  0  0  0
    1.1093   -2.4941   -7.6873 H   0  0  0  0  0  0  0  0  0  0  0  0
    2.7044   -3.2573   -7.4872 H   0  0  0  0  0  0  0  0  0  0  0  0
   -2.9837   -4.4988   -3.3052 H   0  0  0  0  0  0  0  0  0  0  0  0
   -1.7110   -4.8382   -2.1117 H   0  0  0  0  0  0  0  0  0  0  0  0
   -0.7970   -2.9350   -1.1703 H   0  0  0  0  0  0  0  0  0  0  0  0
   -2.1528   -0.8139   -2.9212 H   0  0  0  0  0  0  0  0  0  0  0  0
   -0.6457   -0.9853    1.6230 H   0  0  0  0  0  0  0  0  0  0  0  0
    1.0025   -1.2701   -0.7359 H   0  0  0  0  0  0  0  0  0  0  0  0
   -1.3541    0.6192   -1.3132 H   0  0  0  0  0  0  0  0  0  0  0  0
   -3.1946   -2.5924    1.5212 H   0  0  0  0  0  0  0  0  0  0  0  0
   -3.9417   -1.5366    0.2924 H   0  0  0  0  0  0  0  0  0  0  0  0
   -2.8912   -4.3785   -0.1144 H   0  0  0  0  0  0  0  0  0  0  0  0
   -4.4495   -3.6909   -0.6416 H   0  0  0  0  0  0  0  0  0  0  0  0
    1.4200    0.2193    0.8740 H   0  0  0  0  0  0  0  0  0  0  0  0
    0.8006    1.2773   -1.9797 H   0  0  0  0  0  0  0  0  0  0  0  0
  1  2  1  0  0  0  0
  1  7  1  0  0  0  0
  2  3  2  0  0  0  0
  3  4  1  0  0  0  0
  3 22  1  0  0  0  0
  4  5  2  0  0  0  0
  4 10  1  0  0  0  0
  5  6  1  0  0  0  0
  6  1  2  0  0  0  0
  6 23  1  0  0  0  0
  7  8  1  0  0  0  0
  8  9  1  0  0  0  0
  8 24  1  0  0  0  0
  8 25  1  0  0  0  0
  9  2  1  0  0  0  0
 10 11  1  0  0  0  0
 10 26  1  0  0  0  0
 10 27  1  0  0  0  0
 12 11  1  0  0  0  0
 12 13  1  0  0  0  0
 12 14  1  0  0  0  0
 12 28  1  1  0  0  0
 13  5  1  0  0  0  0
 13 29  1  6  0  0  0
 14 15  2  0  0  0  0
 14 18  1  0  0  0  0
 15 16  1  0  0  0  0
 15 30  1  0  0  0  0
 16 17  1  0  0  0  0
 16 31  1  6  0  0  0
 16 20  1  0  0  0  0
 17 13  1  0  0  0  0
 17 21  1  0  0  0  0
 17 32  1  1  0  0  0
 18 19  1  0  0  0  0
 18 33  1  0  0  0  0
 18 34  1  0  0  0  0
 19 11  1  0  0  0  0
 19 35  1  0  0  0  0
 19 36  1  0  0  0  0
 20 37  1  0  0  0  0
 21 38  1  0  0  0  0
M  END
>  <Mol_ID>
1936

>  <Formula>
C16H17NO4

>  <MolWeight>
287.31048

>  <Cat>
S3903

>  <Name>
Lycorine

>  <Synonyms>
Galanthidine, Amarylline, Narcissine, Licorine, Belamarine

>  <Target>
AChR

>  <Form>
free base

>  <CAS>
476-28-8

>  <URL>
http://selleckchem.com/products/lycorine.html

$$$$
