S3904 Isoimperatorin.cdx
 OpenBabel08302519513D

 34 36  0  0  0  0  0  0  0  0999 V2000
    0.8121    1.3673   -0.0478 C   0  0  0  0  0  0  0  0  0  0  0  0
   -0.3845    0.6193    0.0536 C   0  0  0  0  0  0  0  0  0  0  0  0
    2.0337    0.6533   -0.0992 C   0  0  0  0  0  0  0  0  0  0  0  0
    0.9463    2.7207    0.0214 O   0  0  0  0  0  0  0  0  0  0  0  0
   -0.3246   -0.7801   -0.0645 C   0  0  0  0  0  0  0  0  0  0  0  0
   -1.6949    1.1765    0.3856 C   0  0  0  0  0  0  0  0  0  0  0  0
    2.0202   -0.7354   -0.1336 C   0  0  0  0  0  0  0  0  0  0  0  0
    3.4116    1.0174   -0.1049 C   0  0  0  0  0  0  0  0  0  0  0  0
    0.0328    3.5707   -0.6597 C   0  0  0  0  0  0  0  0  0  0  0  0
    0.8667   -1.5017   -0.1548 C   0  0  0  0  0  0  0  0  0  0  0  0
   -1.5062   -1.5626   -0.1194 O   0  0  0  0  0  0  0  0  0  0  0  0
   -2.8017    0.4349    0.3163 C   0  0  0  0  0  0  0  0  0  0  0  0
    3.2911   -1.2239   -0.1471 O   0  0  0  0  0  0  0  0  0  0  0  0
    4.1285   -0.1554   -0.1169 C   0  0  0  0  0  0  0  0  0  0  0  0
   -0.5607    4.5891    0.2856 C   0  0  0  0  0  0  0  0  0  0  0  0
   -2.7628   -0.9845   -0.0637 C   0  0  0  0  0  0  0  0  0  0  0  0
   -0.2736    4.8375    1.5853 C   0  0  0  0  0  0  0  0  0  0  0  0
   -3.7932   -1.6134   -0.2689 O   0  0  0  0  0  0  0  0  0  0  0  0
   -1.0502    5.8591    2.3663 C   0  0  0  0  0  0  0  0  0  0  0  0
    0.8194    4.1507    2.3645 C   0  0  0  0  0  0  0  0  0  0  0  0
   -1.7618    2.1966    0.7440 H   0  0  0  0  0  0  0  0  0  0  0  0
    3.8194    2.0180   -0.0783 H   0  0  0  0  0  0  0  0  0  0  0  0
    0.5896    4.1061   -1.4384 H   0  0  0  0  0  0  0  0  0  0  0  0
   -0.7627    3.0275   -1.1794 H   0  0  0  0  0  0  0  0  0  0  0  0
    0.8966   -2.5832   -0.2011 H   0  0  0  0  0  0  0  0  0  0  0  0
   -3.7805    0.8322    0.5585 H   0  0  0  0  0  0  0  0  0  0  0  0
    5.1842   -0.3885   -0.1045 H   0  0  0  0  0  0  0  0  0  0  0  0
   -1.3569    5.1754   -0.1747 H   0  0  0  0  0  0  0  0  0  0  0  0
   -1.7443    5.3505    3.0439 H   0  0  0  0  0  0  0  0  0  0  0  0
   -0.3791    6.4843    2.9647 H   0  0  0  0  0  0  0  0  0  0  0  0
   -1.6277    6.5258    1.7193 H   0  0  0  0  0  0  0  0  0  0  0  0
    0.6594    3.0702    2.4160 H   0  0  0  0  0  0  0  0  0  0  0  0
    1.8002    4.3626    1.9238 H   0  0  0  0  0  0  0  0  0  0  0  0
    0.8516    4.5044    3.4001 H   0  0  0  0  0  0  0  0  0  0  0  0
  1  2  2  0  0  0  0
  1  3  1  0  0  0  0
  1  4  1  0  0  0  0
  2  5  1  0  0  0  0
  2  6  1  0  0  0  0
  3  7  2  0  0  0  0
  3  8  1  0  0  0  0
  4  9  1  0  0  0  0
  5 10  2  0  0  0  0
  5 11  1  0  0  0  0
  6 12  2  0  0  0  0
  6 21  1  0  0  0  0
  7 13  1  0  0  0  0
  7 10  1  0  0  0  0
  8 14  2  0  0  0  0
  8 22  1  0  0  0  0
  9 15  1  0  0  0  0
  9 23  1  0  0  0  0
  9 24  1  0  0  0  0
 10 25  1  0  0  0  0
 11 16  1  0  0  0  0
 12 16  1  0  0  0  0
 12 26  1  0  0  0  0
 13 14  1  0  0  0  0
 14 27  1  0  0  0  0
 15 17  2  0  0  0  0
 15 28  1  0  0  0  0
 16 18  2  0  0  0  0
 17 19  1  0  0  0  0
 17 20  1  0  0  0  0
 19 29  1  0  0  0  0
 19 30  1  0  0  0  0
 19 31  1  0  0  0  0
 20 32  1  0  0  0  0
 20 33  1  0  0  0  0
 20 34  1  0  0  0  0
M  END
>  <Mol_ID>
1937

>  <Formula>
C16H14O4

>  <MolWeight>
270.27996

>  <Cat>
S3904

>  <Name>
Isoimperatorin

>  <Synonyms>
N/A

>  <Target>
AChR

>  <Form>
free base

>  <CAS>
482-45-1

>  <URL>
http://selleckchem.com/products/isoimperatorin.html

$$$$
