S3912 Cephalotaxine.cdx
 OpenBabel08302519512D

 44 48  0  0  0  0  0  0  0  0999 V2000
    7.0305    4.0380    0.0000 C   0  0  1  0  0  0  0  0  0  0  0  0
    5.6695    3.7546    0.0000 C   0  0  2  0  0  0  0  0  0  0  0  0
    7.6489    5.2959    0.0000 N   0  0  3  0  0  0  0  0  0  0  0  0
    7.7493    2.8439    0.0000 C   0  0  0  0  0  0  0  0  0  0  0  0
    4.5855    4.6053    0.0000 C   0  0  0  0  0  0  0  0  0  0  0  0
    5.5441    2.3468    0.0000 C   0  0  1  0  0  0  0  0  0  0  0  0
    7.0518    6.5640    0.0000 C   0  0  0  0  0  0  0  0  0  0  0  0
    6.8237    1.7861    0.0000 C   0  0  0  0  0  0  0  0  0  0  0  0
    4.5975    6.0112    0.0000 C   0  0  0  0  0  0  0  0  0  0  0  0
    3.3725    3.9301    0.0000 C   0  0  0  0  0  0  0  0  0  0  0  0
    4.3327    1.6474    0.0000 O   0  0  0  0  0  0  0  0  0  0  0  0
    5.7047    6.8796    0.0000 C   0  0  0  0  0  0  0  0  0  0  0  0
    7.1266    0.4205    0.0000 O   0  0  0  0  0  0  0  0  0  0  0  0
    3.3919    6.7229    0.0000 C   0  0  0  0  0  0  0  0  0  0  0  0
    2.1613    4.6485    0.0000 C   0  0  0  0  0  0  0  0  0  0  0  0
    8.4606    0.0000    0.0000 C   0  0  0  0  0  0  0  0  0  0  0  0
    2.1616    6.0297    0.0000 C   0  0  0  0  0  0  0  0  0  0  0  0
    0.8235    4.2192    0.0000 O   0  0  0  0  0  0  0  0  0  0  0  0
    0.8379    6.4696    0.0000 O   0  0  0  0  0  0  0  0  0  0  0  0
    0.0000    5.3665    0.0000 C   0  0  0  0  0  0  0  0  0  0  0  0
    9.2754    3.7154    0.0000 C   0  0  0  0  0  0  0  0  0  0  0  0
    9.0362    5.0965    0.0000 C   0  0  0  0  0  0  0  0  0  0  0  0
    8.2461    3.3362    0.0000 C   0  0  0  0  0  0  0  0  0  0  0  0
    5.9135    4.7964    0.0000 H   0  0  0  0  0  0  0  0  0  0  0  0
    8.7773    2.7527    0.0000 H   0  0  0  0  0  0  0  0  0  0  0  0
    4.6421    2.9224    0.0000 H   0  0  0  0  0  0  0  0  0  0  0  0
    7.7250    7.3957    0.0000 H   0  0  0  0  0  0  0  0  0  0  0  0
    6.7050    7.5762    0.0000 H   0  0  0  0  0  0  0  0  0  0  0  0
    3.3583    2.8982    0.0000 H   0  0  0  0  0  0  0  0  0  0  0  0
    3.4927    2.1324    0.0000 H   0  0  0  0  0  0  0  0  0  0  0  0
    5.4738    7.9244    0.0000 H   0  0  0  0  0  0  0  0  0  0  0  0
    4.6974    7.2406    0.0000 H   0  0  0  0  0  0  0  0  0  0  0  0
    3.4023    7.7548    0.0000 H   0  0  0  0  0  0  0  0  0  0  0  0
    8.6923   -1.0446    0.0000 H   0  0  0  0  0  0  0  0  0  0  0  0
    9.2494    0.7229    0.0000 H   0  0  0  0  0  0  0  0  0  0  0  0
    9.4811   -0.3217    0.0000 H   0  0  0  0  0  0  0  0  0  0  0  0
   -1.0699    5.3810    0.0000 H   0  0  0  0  0  0  0  0  0  0  0  0
   -0.4691    6.3282    0.0000 H   0  0  0  0  0  0  0  0  0  0  0  0
   10.2023    3.1808    0.0000 H   0  0  0  0  0  0  0  0  0  0  0  0
    9.1845    2.6493    0.0000 H   0  0  0  0  0  0  0  0  0  0  0  0
    9.7819    5.8639    0.0000 H   0  0  0  0  0  0  0  0  0  0  0  0
    8.6910    6.1093    0.0000 H   0  0  0  0  0  0  0  0  0  0  0  0
    8.1549    2.2701    0.0000 H   0  0  0  0  0  0  0  0  0  0  0  0
    9.0969    2.6873    0.0000 H   0  0  0  0  0  0  0  0  0  0  0  0
  1  2  1  0  0  0  0
  1  3  1  0  0  0  0
  1  4  1  1  0  0  0
  1 23  1  0  0  0  0
  2  5  1  0  0  0  0
  2  6  1  0  0  0  0
  2 24  1  6  0  0  0
  3  7  1  0  0  0  0
  4  8  2  0  0  0  0
  4 25  1  0  0  0  0
  5  9  2  0  0  0  0
  5 10  1  0  0  0  0
  6 11  1  0  0  0  0
  6  8  1  0  0  0  0
  6 26  1  6  0  0  0
  7 12  1  0  0  0  0
  7 27  1  0  0  0  0
  7 28  1  0  0  0  0
  8 13  1  0  0  0  0
  9 14  1  0  0  0  0
  9 12  1  0  0  0  0
 10 15  2  0  0  0  0
 10 29  1  0  0  0  0
 11 30  1  0  0  0  0
 12 31  1  0  0  0  0
 12 32  1  0  0  0  0
 13 16  1  0  0  0  0
 14 17  2  0  0  0  0
 14 33  1  0  0  0  0
 15 18  1  0  0  0  0
 15 17  1  0  0  0  0
 16 34  1  0  0  0  0
 16 35  1  0  0  0  0
 16 36  1  0  0  0  0
 17 19  1  0  0  0  0
 18 20  1  0  0  0  0
 19 20  1  0  0  0  0
 20 37  1  0  0  0  0
 20 38  1  0  0  0  0
 21 22  1  0  0  0  0
 21 39  1  0  0  0  0
 21 40  1  0  0  0  0
 22  3  1  0  0  0  0
 22 41  1  0  0  0  0
 22 42  1  0  0  0  0
 23 21  1  0  0  0  0
 23 43  1  0  0  0  0
 23 44  1  0  0  0  0
M  END
>  <Mol_ID>
1810

>  <Formula>
C18H21NO4

>  <MolWeight>
315.36364

>  <Cat>
S3912

>  <Name>
Cephalotaxine

>  <Synonyms>
N/A

>  <Target>
Others

>  <Form>
free base

>  <CAS>
24316-19-6

>  <URL>
http://selleckchem.com/products/cephalotaxine.html

$$$$
