S3947 Hydroumbellic acid.cdx
 OpenBabel08302519513D

 23 23  0  0  0  0  0  0  0  0999 V2000
    1.1427    1.1742    0.0738 C   0  0  0  0  0  0  0  0  0  0  0  0
    1.1913   -0.2250   -0.0489 C   0  0  0  0  0  0  0  0  0  0  0  0
   -0.1334    1.7649    0.1819 C   0  0  0  0  0  0  0  0  0  0  0  0
    2.3795    2.0504   -0.0150 C   0  0  0  0  0  0  0  0  0  0  0  0
    0.0241   -0.9945   -0.0552 C   0  0  0  0  0  0  0  0  0  0  0  0
    2.3482   -0.9411   -0.1811 O   0  0  0  0  0  0  0  0  0  0  0  0
   -1.3016    0.9981    0.1883 C   0  0  0  0  0  0  0  0  0  0  0  0
    2.3155    3.3466    0.8016 C   0  0  0  0  0  0  0  0  0  0  0  0
   -1.2134   -0.3787    0.0611 C   0  0  0  0  0  0  0  0  0  0  0  0
    3.5895    4.1455    0.6903 C   0  0  0  0  0  0  0  0  0  0  0  0
   -2.3297   -1.1602    0.0357 O   0  0  0  0  0  0  0  0  0  0  0  0
    3.5421    5.2821    1.4248 O   0  0  0  0  0  0  0  0  0  0  0  0
    4.5574    3.8393    0.0163 O   0  0  0  0  0  0  0  0  0  0  0  0
   -0.2528    2.8423    0.2457 H   0  0  0  0  0  0  0  0  0  0  0  0
    3.2609    1.4984    0.3278 H   0  0  0  0  0  0  0  0  0  0  0  0
    2.5480    2.2858   -1.0740 H   0  0  0  0  0  0  0  0  0  0  0  0
    0.0851   -2.0740   -0.1627 H   0  0  0  0  0  0  0  0  0  0  0  0
    3.1198   -0.3808   -0.0180 H   0  0  0  0  0  0  0  0  0  0  0  0
   -2.2620    1.4950    0.2805 H   0  0  0  0  0  0  0  0  0  0  0  0
    1.5075    3.9927    0.4449 H   0  0  0  0  0  0  0  0  0  0  0  0
    2.1494    3.1083    1.8583 H   0  0  0  0  0  0  0  0  0  0  0  0
   -3.1127   -0.5853    0.0362 H   0  0  0  0  0  0  0  0  0  0  0  0
    2.7069    5.4074    1.9149 H   0  0  0  0  0  0  0  0  0  0  0  0
  1  2  2  0  0  0  0
  1  3  1  0  0  0  0
  1  4  1  0  0  0  0
  2  5  1  0  0  0  0
  2  6  1  0  0  0  0
  3  7  2  0  0  0  0
  3 14  1  0  0  0  0
  4  8  1  0  0  0  0
  4 15  1  0  0  0  0
  4 16  1  0  0  0  0
  5  9  2  0  0  0  0
  5 17  1  0  0  0  0
  6 18  1  0  0  0  0
  7  9  1  0  0  0  0
  7 19  1  0  0  0  0
  8 10  1  0  0  0  0
  8 20  1  0  0  0  0
  8 21  1  0  0  0  0
  9 11  1  0  0  0  0
 10 12  1  0  0  0  0
 10 13  2  0  0  0  0
 11 22  1  0  0  0  0
 12 23  1  0  0  0  0
M  END
>  <Mol_ID>
1823

>  <Formula>
C9H10O4

>  <MolWeight>
182.1733

>  <Cat>
S3947

>  <Name>
Hydroumbellic acid

>  <Synonyms>
2,4-Dihydroxyhydrocinnamic acid

>  <Target>
Others

>  <Form>
free base

>  <CAS>
5631-68-5

>  <URL>
http://selleckchem.com/products/hydroumbellic-acid.html

$$$$
