S3945 L-Cycloserine.cdx
 OpenBabel08302519513D

 13 13  0  0  0  0  0  0  0  0999 V2000
   -0.8003   -1.0164   -0.1661 C   0  0  2  0  0  0  0  0  0  0  0  0
    0.6931   -1.0390    0.0570 C   0  0  0  0  0  0  0  0  0  0  0  0
   -1.0976    0.4095    0.2726 C   0  0  0  0  0  0  0  0  0  0  0  0
   -1.5070   -2.0359    0.6195 N   0  0  0  0  0  0  0  0  0  0  0  0
    1.1389    0.2595   -0.0496 N   0  0  0  0  0  0  0  0  0  0  0  0
    1.3959   -2.0210    0.2335 O   0  0  0  0  0  0  0  0  0  0  0  0
    0.0652    1.1824   -0.0590 O   0  0  0  0  0  0  0  0  0  0  0  0
   -0.9779   -1.1543   -1.2386 H   0  0  0  0  0  0  0  0  0  0  0  0
   -1.9720    0.8197   -0.2415 H   0  0  0  0  0  0  0  0  0  0  0  0
   -1.2577    0.4920    1.3542 H   0  0  0  0  0  0  0  0  0  0  0  0
   -2.4880   -2.0630    0.3486 H   0  0  0  0  0  0  0  0  0  0  0  0
   -1.1113   -2.9502    0.3879 H   0  0  0  0  0  0  0  0  0  0  0  0
    2.0561    0.5540    0.2591 H   0  0  0  0  0  0  0  0  0  0  0  0
  1  2  1  0  0  0  0
  1  3  1  0  0  0  0
  1  8  1  6  0  0  0
  1  4  1  0  0  0  0
  2  5  1  0  0  0  0
  2  6  2  0  0  0  0
  3  7  1  0  0  0  0
  3  9  1  0  0  0  0
  3 10  1  0  0  0  0
  4 11  1  0  0  0  0
  4 12  1  0  0  0  0
  5  7  1  0  0  0  0
  5 13  1  0  0  0  0
M  END
>  <Mol_ID>
1824

>  <Formula>
C3H6N2O2

>  <MolWeight>
102.09194

>  <Cat>
S3945

>  <Name>
L-Cycloserine

>  <Synonyms>
Levcycloserine, Levcicloserina, Levcycloserinum, (-)-Cycloserine, (S)-Cycloserine

>  <Target>
Transferase

>  <Form>
free base

>  <CAS>
339-72-0

>  <URL>
http://selleckchem.com/products/l-cycloserine.html

$$$$
