S3942 Cardamonin.cdx
 OpenBabel08302519503D

 34 35  0  0  0  0  0  0  0  0999 V2000
    1.2459    1.2301   -0.1365 C   0  0  0  0  0  0  0  0  0  0  0  0
    1.2751   -0.1829   -0.0919 C   0  0  0  0  0  0  0  0  0  0  0  0
   -0.0253    1.8565   -0.0876 C   0  0  0  0  0  0  0  0  0  0  0  0
    2.4696    2.0847   -0.1583 C   0  0  0  0  0  0  0  0  0  0  0  0
    0.0528   -0.8902   -0.0400 C   0  0  0  0  0  0  0  0  0  0  0  0
    2.2887   -1.0972   -0.1073 O   0  0  0  0  0  0  0  0  0  0  0  0
   -1.2219    1.1343   -0.0758 C   0  0  0  0  0  0  0  0  0  0  0  0
   -0.2047    3.2136    0.0138 O   0  0  0  0  0  0  0  0  0  0  0  0
    2.5284    3.3120   -1.0175 C   0  0  0  0  0  0  0  0  0  0  0  0
    3.3944    1.8484    0.6126 O   0  0  0  0  0  0  0  0  0  0  0  0
   -1.1720   -0.2434   -0.0437 C   0  0  0  0  0  0  0  0  0  0  0  0
    3.6599   -0.7650   -0.1132 C   0  0  0  0  0  0  0  0  0  0  0  0
    3.7210    3.9019   -1.2086 C   0  0  0  0  0  0  0  0  0  0  0  0
   -2.2985   -1.0062    0.0040 O   0  0  0  0  0  0  0  0  0  0  0  0
    3.8781    5.2376   -1.7921 C   0  0  0  0  0  0  0  0  0  0  0  0
    4.1136    6.3193   -0.9294 C   0  0  0  0  0  0  0  0  0  0  0  0
    3.8364    5.4588   -3.1655 C   0  0  0  0  0  0  0  0  0  0  0  0
    4.3031    7.6058   -1.4356 C   0  0  0  0  0  0  0  0  0  0  0  0
    4.0327    6.7491   -3.6778 C   0  0  0  0  0  0  0  0  0  0  0  0
    4.2637    7.8185   -2.8110 C   0  0  0  0  0  0  0  0  0  0  0  0
    0.0678   -1.9792    0.0034 H   0  0  0  0  0  0  0  0  0  0  0  0
   -2.1690    1.6640   -0.0566 H   0  0  0  0  0  0  0  0  0  0  0  0
    0.3324    3.5277    0.7647 H   0  0  0  0  0  0  0  0  0  0  0  0
    1.6161    3.7639   -1.3831 H   0  0  0  0  0  0  0  0  0  0  0  0
    3.9237   -0.1533   -0.9788 H   0  0  0  0  0  0  0  0  0  0  0  0
    3.9673   -0.3306    0.8397 H   0  0  0  0  0  0  0  0  0  0  0  0
    4.2134   -1.7071   -0.2015 H   0  0  0  0  0  0  0  0  0  0  0  0
    4.6407    3.4497   -0.8418 H   0  0  0  0  0  0  0  0  0  0  0  0
   -3.0773   -0.4257   -0.0053 H   0  0  0  0  0  0  0  0  0  0  0  0
    4.1578    6.1602    0.1461 H   0  0  0  0  0  0  0  0  0  0  0  0
    3.6721    4.6385   -3.8608 H   0  0  0  0  0  0  0  0  0  0  0  0
    4.4914    8.4355   -0.7580 H   0  0  0  0  0  0  0  0  0  0  0  0
    4.0145    6.9234   -4.7494 H   0  0  0  0  0  0  0  0  0  0  0  0
    4.4210    8.8175   -3.2096 H   0  0  0  0  0  0  0  0  0  0  0  0
  1  2  2  0  0  0  0
  1  3  1  0  0  0  0
  1  4  1  0  0  0  0
  2  5  1  0  0  0  0
  2  6  1  0  0  0  0
  3  7  2  0  0  0  0
  3  8  1  0  0  0  0
  4  9  1  0  0  0  0
  4 10  2  0  0  0  0
  5 11  2  0  0  0  0
  5 21  1  0  0  0  0
  6 12  1  0  0  0  0
  7 11  1  0  0  0  0
  7 22  1  0  0  0  0
  8 23  1  0  0  0  0
  9 13  2  0  0  0  0
  9 24  1  0  0  0  0
 11 14  1  0  0  0  0
 12 25  1  0  0  0  0
 12 26  1  0  0  0  0
 12 27  1  0  0  0  0
 13 15  1  0  0  0  0
 13 28  1  0  0  0  0
 14 29  1  0  0  0  0
 15 16  2  0  0  0  0
 15 17  1  0  0  0  0
 16 18  1  0  0  0  0
 16 30  1  0  0  0  0
 17 19  2  0  0  0  0
 17 31  1  0  0  0  0
 18 20  2  0  0  0  0
 18 32  1  0  0  0  0
 19 20  1  0  0  0  0
 19 33  1  0  0  0  0
 20 34  1  0  0  0  0
M  END
>  <Mol_ID>
1759

>  <Formula>
C16H14O4

>  <MolWeight>
270.27996

>  <Cat>
S3867

>  <Name>
(E)-Cardamonin

>  <Synonyms>
Alpinetin chalcone, cardamomin

>  <Target>
NF-¦ÊB,TRP Channel

>  <Form>
free base

>  <CAS>
19309-14-9

>  <URL>
http://selleckchem.com/products/e-cardamoni.html

$$$$
