S3959 (+)-Borneol.cdx
 OpenBabel08302519503D

 29 30  0  0  0  0  0  0  0  0999 V2000
   -1.2712   -0.7800   -0.5314 C   0  0  0  0  0  0  0  0  0  0  0  0
   -0.0188   -1.1259    0.3208 C   0  0  3  0  0  0  0  0  0  0  0  0
    1.2520   -0.7809   -0.5133 C   0  0  3  0  0  0  0  0  0  0  0  0
    1.2363    0.7594   -0.5456 C   0  0  0  0  0  0  0  0  0  0  0  0
   -1.2402    0.7599   -0.5670 C   0  0  0  0  0  0  0  0  0  0  0  0
   -0.0109    1.1020    0.3067 C   0  0  3  0  0  0  0  0  0  0  0  0
   -0.0318    0.0006    1.4001 C   0  0  0  0  0  0  0  0  0  0  0  0
    1.1832    0.0207    2.3496 C   0  0  0  0  0  0  0  0  0  0  0  0
   -1.2829    0.0261    2.3012 C   0  0  0  0  0  0  0  0  0  0  0  0
   -0.0192   -2.5515    0.8411 C   0  0  0  0  0  0  0  0  0  0  0  0
    1.2511   -1.3493   -1.8126 O   0  0  0  0  0  0  0  0  0  0  0  0
   -2.1948   -1.1358   -0.0610 H   0  0  0  0  0  0  0  0  0  0  0  0
   -1.2553   -1.2127   -1.5356 H   0  0  0  0  0  0  0  0  0  0  0  0
    2.1615   -1.1392   -0.0203 H   0  0  0  0  0  0  0  0  0  0  0  0
    1.1805    1.1700   -1.5586 H   0  0  0  0  0  0  0  0  0  0  0  0
    2.1393    1.1608   -0.0781 H   0  0  0  0  0  0  0  0  0  0  0  0
   -1.1459    1.1423   -1.5890 H   0  0  0  0  0  0  0  0  0  0  0  0
   -2.1597    1.1791   -0.1457 H   0  0  0  0  0  0  0  0  0  0  0  0
   -0.0116    2.1315    0.6725 H   0  0  0  0  0  0  0  0  0  0  0  0
    1.1639    0.9221    2.9729 H   0  0  0  0  0  0  0  0  0  0  0  0
    1.1610   -0.8452    3.0197 H   0  0  0  0  0  0  0  0  0  0  0  0
    2.1527    0.0075    1.8491 H   0  0  0  0  0  0  0  0  0  0  0  0
   -2.2332    0.0746    1.7655 H   0  0  0  0  0  0  0  0  0  0  0  0
   -1.3229   -0.8694    2.9315 H   0  0  0  0  0  0  0  0  0  0  0  0
   -1.2585    0.8982    2.9637 H   0  0  0  0  0  0  0  0  0  0  0  0
    0.8643   -2.7464    1.4591 H   0  0  0  0  0  0  0  0  0  0  0  0
   -0.9028   -2.7519    1.4556 H   0  0  0  0  0  0  0  0  0  0  0  0
   -0.0145   -3.2731    0.0174 H   0  0  0  0  0  0  0  0  0  0  0  0
    0.5996   -0.8827   -2.3596 H   0  0  0  0  0  0  0  0  0  0  0  0
  1  2  1  0  0  0  0
  1  5  1  0  0  0  0
  1 12  1  0  0  0  0
  1 13  1  0  0  0  0
  2  3  1  0  0  0  0
  2  7  1  0  0  0  0
  2 10  1  0  0  0  0
  3  4  1  0  0  0  0
  3 11  1  0  0  0  0
  3 14  1  0  0  0  0
  4  6  1  0  0  0  0
  4 15  1  0  0  0  0
  4 16  1  0  0  0  0
  5  6  1  0  0  0  0
  5 17  1  0  0  0  0
  5 18  1  0  0  0  0
  6  7  1  0  0  0  0
  6 19  1  0  0  0  0
  7  8  1  0  0  0  0
  7  9  1  0  0  0  0
  8 20  1  0  0  0  0
  8 21  1  0  0  0  0
  8 22  1  0  0  0  0
  9 23  1  0  0  0  0
  9 24  1  0  0  0  0
  9 25  1  0  0  0  0
 10 26  1  0  0  0  0
 10 27  1  0  0  0  0
 10 28  1  0  0  0  0
 11 29  1  0  0  0  0
M  END
>  <Mol_ID>
1763

>  <Formula>
C10H18O

>  <MolWeight>
154.24932

>  <Cat>
S3959

>  <Name>
(+)-Borneol

>  <Synonyms>
N/A

>  <Target>
GABA Receptor

>  <Form>
free base

>  <CAS>
464-43-7

>  <URL>
http://selleckchem.com/products/positive-rotation-borneol.html

$$$$
