S3967 Flavone.cdx
 OpenBabel08302519523D

 27 29  0  0  0  0  0  0  0  0999 V2000
    0.0544    0.4845    0.0346 C   0  0  0  0  0  0  0  0  0  0  0  0
    0.4223   -0.8577    0.0437 C   0  0  0  0  0  0  0  0  0  0  0  0
   -1.3750    0.8279    0.0430 C   0  0  0  0  0  0  0  0  0  0  0  0
    1.0285    1.4845    0.0053 C   0  0  0  0  0  0  0  0  0  0  0  0
   -0.4936   -1.8771    0.0525 O   0  0  0  0  0  0  0  0  0  0  0  0
    1.7706   -1.2120    0.0306 C   0  0  0  0  0  0  0  0  0  0  0  0
   -2.3178   -0.3011    0.0143 C   0  0  0  0  0  0  0  0  0  0  0  0
   -1.7751    1.9792    0.0483 O   0  0  0  0  0  0  0  0  0  0  0  0
    2.3783    1.1306   -0.0101 C   0  0  0  0  0  0  0  0  0  0  0  0
   -1.8387   -1.5521   -0.0070 C   0  0  0  0  0  0  0  0  0  0  0  0
    2.7481   -0.2161    0.0040 C   0  0  0  0  0  0  0  0  0  0  0  0
   -2.7327   -2.7181   -0.1259 C   0  0  0  0  0  0  0  0  0  0  0  0
   -2.2768   -3.8881   -0.7552 C   0  0  0  0  0  0  0  0  0  0  0  0
   -4.0264   -2.7023    0.4118 C   0  0  0  0  0  0  0  0  0  0  0  0
   -3.0904   -5.0173   -0.8336 C   0  0  0  0  0  0  0  0  0  0  0  0
   -4.8341   -3.8384    0.3468 C   0  0  0  0  0  0  0  0  0  0  0  0
   -4.3663   -4.9932   -0.2749 C   0  0  0  0  0  0  0  0  0  0  0  0
    0.7384    2.5325   -0.0096 H   0  0  0  0  0  0  0  0  0  0  0  0
    2.0608   -2.2600    0.0361 H   0  0  0  0  0  0  0  0  0  0  0  0
   -3.3685   -0.0522   -0.0280 H   0  0  0  0  0  0  0  0  0  0  0  0
    3.1415    1.9051   -0.0343 H   0  0  0  0  0  0  0  0  0  0  0  0
    3.8008   -0.4893   -0.0085 H   0  0  0  0  0  0  0  0  0  0  0  0
   -1.2758   -3.9320   -1.1784 H   0  0  0  0  0  0  0  0  0  0  0  0
   -4.4106   -1.8141    0.9049 H   0  0  0  0  0  0  0  0  0  0  0  0
   -2.7205   -5.9188   -1.3146 H   0  0  0  0  0  0  0  0  0  0  0  0
   -5.8251   -3.8227    0.7909 H   0  0  0  0  0  0  0  0  0  0  0  0
   -4.9930   -5.8792   -0.3191 H   0  0  0  0  0  0  0  0  0  0  0  0
  1  2  2  0  0  0  0
  1  3  1  0  0  0  0
  1  4  1  0  0  0  0
  2  5  1  0  0  0  0
  2  6  1  0  0  0  0
  3  7  1  0  0  0  0
  3  8  2  0  0  0  0
  4  9  2  0  0  0  0
  4 18  1  0  0  0  0
  5 10  1  0  0  0  0
  6 11  2  0  0  0  0
  6 19  1  0  0  0  0
  7 10  2  0  0  0  0
  7 20  1  0  0  0  0
  9 11  1  0  0  0  0
  9 21  1  0  0  0  0
 10 12  1  0  0  0  0
 11 22  1  0  0  0  0
 12 13  2  0  0  0  0
 12 14  1  0  0  0  0
 13 15  1  0  0  0  0
 13 23  1  0  0  0  0
 14 16  2  0  0  0  0
 14 24  1  0  0  0  0
 15 17  2  0  0  0  0
 15 25  1  0  0  0  0
 16 17  1  0  0  0  0
 16 26  1  0  0  0  0
 17 27  1  0  0  0  0
M  END
>  <Mol_ID>
1977

>  <Formula>
C15H10O2

>  <MolWeight>
222.2387

>  <Cat>
S3967

>  <Name>
Flavone

>  <Synonyms>
2-Phenylchromone, 2-Phenyl-4-chromone, 2-Phenyl-4-benzopyron

>  <Target>
Apoptosis related

>  <Form>
free base

>  <CAS>
525-82-6

>  <URL>
http://selleckchem.com/products/flavone.html

$$$$
