S3963 DL-Glutamine.cdx
 OpenBabel08302521363D

 20 19  0  0  0  0  0  0  0  0999 V2000
    0.9007   -0.1444   -0.1938 C   0  0  0  0  0  0  0  0  0  0  0  0
   -0.7823    1.6332   -0.3319 N   0  0  0  0  0  0  0  0  0  0  0  0
    0.1916    0.9730    0.5864 C   0  0  3  0  0  0  0  0  0  0  0  0
   -0.5665    0.3922    1.7880 C   0  0  0  0  0  0  0  0  0  0  0  0
    0.3004   -0.3607    2.7991 C   0  0  0  0  0  0  0  0  0  0  0  0
    1.3479    0.5267    3.4209 C   0  0  0  0  0  0  0  0  0  0  0  0
    1.1236    1.2690    4.3740 O   0  0  0  0  0  0  0  0  0  0  0  0
    2.5636    0.5117    2.8061 N   0  0  0  0  0  0  0  0  0  0  0  0
    1.9931   -0.6104    0.0957 O   0  0  0  0  0  0  0  0  0  0  0  0
    0.1364   -0.5929   -1.2221 O   0  0  0  0  0  0  0  0  0  0  0  0
   -1.2770    2.3535    0.2051 H   0  0  0  0  0  0  0  0  0  0  0  0
   -0.2463    2.1704   -1.0233 H   0  0  0  0  0  0  0  0  0  0  0  0
    0.9315    1.7218    0.8848 H   0  0  0  0  0  0  0  0  0  0  0  0
   -1.0893    1.2058    2.3075 H   0  0  0  0  0  0  0  0  0  0  0  0
   -1.3413   -0.3017    1.4332 H   0  0  0  0  0  0  0  0  0  0  0  0
   -0.3314   -0.7437    3.6102 H   0  0  0  0  0  0  0  0  0  0  0  0
    0.7734   -1.2380    2.3450 H   0  0  0  0  0  0  0  0  0  0  0  0
    2.7980   -0.1457    2.0658 H   0  0  0  0  0  0  0  0  0  0  0  0
    3.3088    1.0651    3.2095 H   0  0  0  0  0  0  0  0  0  0  0  0
   -0.6781   -0.0301   -1.2311 H   0  0  0  0  0  0  0  0  0  0  0  0
  1  3  1  0  0  0  0
  1  9  2  0  0  0  0
  1 10  1  0  0  0  0
  2  3  1  0  0  0  0
  2 11  1  0  0  0  0
  2 12  1  0  0  0  0
  3  4  1  0  0  0  0
  3 13  1  0  0  0  0
  4  5  1  0  0  0  0
  4 14  1  0  0  0  0
  4 15  1  0  0  0  0
  5  6  1  0  0  0  0
  5 16  1  0  0  0  0
  5 17  1  0  0  0  0
  6  7  2  0  0  0  0
  6  8  1  0  0  0  0
  8 18  1  0  0  0  0
  8 19  1  0  0  0  0
 10 20  1  0  0  0  0
M  END
>  <Mol_ID>
7119

>  <Formula>
C5H10N2O3

>  <MolWeight>
146.1445

>  <Cat>
S3963

>  <Name>
DL-Glutamine

>  <Synonyms>
Glutamin, 2-amino-4-carbamoylbutanoic acid

>  <Target>
Others

>  <Form>
free base

>  <CAS>
6899-04-3

>  <URL>
http://selleckchem.com/products/dl-glutamine.html

$$$$
