S3969 Veratric acid.cdx
 OpenBabel08302519553D

 23 23  0  0  0  0  0  0  0  0999 V2000
    1.4180   -0.2081   -0.0641 C   0  0  0  0  0  0  0  0  0  0  0  0
    0.5316   -1.2985   -0.0270 C   0  0  0  0  0  0  0  0  0  0  0  0
    0.9094    1.0974    0.0703 C   0  0  0  0  0  0  0  0  0  0  0  0
    2.7553   -0.4411   -0.2442 O   0  0  0  0  0  0  0  0  0  0  0  0
   -0.8459   -1.0525    0.0870 C   0  0  0  0  0  0  0  0  0  0  0  0
    0.7945   -2.6322   -0.1801 O   0  0  0  0  0  0  0  0  0  0  0  0
   -0.4700    1.3238    0.1830 C   0  0  0  0  0  0  0  0  0  0  0  0
   -1.3458    0.2430    0.1763 C   0  0  0  0  0  0  0  0  0  0  0  0
    2.0961   -3.1402    0.0606 C   0  0  0  0  0  0  0  0  0  0  0  0
   -1.0437    2.6937    0.2160 C   0  0  0  0  0  0  0  0  0  0  0  0
   -0.2786    3.5916    0.8723 O   0  0  0  0  0  0  0  0  0  0  0  0
   -2.1204    2.9749   -0.2769 O   0  0  0  0  0  0  0  0  0  0  0  0
    3.5221    0.5981   -0.8508 C   0  0  0  0  0  0  0  0  0  0  0  0
    1.5810    1.9482    0.0393 H   0  0  0  0  0  0  0  0  0  0  0  0
   -1.5388   -1.8924    0.0823 H   0  0  0  0  0  0  0  0  0  0  0  0
   -2.4238    0.4046    0.2267 H   0  0  0  0  0  0  0  0  0  0  0  0
    2.8590   -2.6833   -0.5706 H   0  0  0  0  0  0  0  0  0  0  0  0
    2.3507   -3.0771    1.1228 H   0  0  0  0  0  0  0  0  0  0  0  0
    2.0782   -4.2015   -0.2122 H   0  0  0  0  0  0  0  0  0  0  0  0
    0.4562    3.2120    1.3910 H   0  0  0  0  0  0  0  0  0  0  0  0
    2.9504    1.1893   -1.5748 H   0  0  0  0  0  0  0  0  0  0  0  0
    3.9457    1.2431   -0.0747 H   0  0  0  0  0  0  0  0  0  0  0  0
    4.3482    0.1341   -1.3987 H   0  0  0  0  0  0  0  0  0  0  0  0
  1  2  2  0  0  0  0
  1  3  1  0  0  0  0
  1  4  1  0  0  0  0
  2  5  1  0  0  0  0
  2  6  1  0  0  0  0
  3  7  2  0  0  0  0
  3 14  1  0  0  0  0
  4 13  1  0  0  0  0
  5  8  2  0  0  0  0
  5 15  1  0  0  0  0
  6  9  1  0  0  0  0
  7 10  1  0  0  0  0
  7  8  1  0  0  0  0
  8 16  1  0  0  0  0
  9 17  1  0  0  0  0
  9 18  1  0  0  0  0
  9 19  1  0  0  0  0
 10 11  1  0  0  0  0
 10 12  2  0  0  0  0
 11 20  1  0  0  0  0
 13 21  1  0  0  0  0
 13 22  1  0  0  0  0
 13 23  1  0  0  0  0
M  END
>  <Mol_ID>
2111

>  <Formula>
C9H10O4

>  <MolWeight>
182.1733

>  <Cat>
S3969

>  <Name>
Veratric acid

>  <Synonyms>
3,4-Dimethoxybenzoic acid

>  <Target>
COX,Immunology & Inflammation related,Interleukins,PGES

>  <Form>
free base

>  <CAS>
93-07-2

>  <URL>
http://selleckchem.com/products/veratric-acid.html

$$$$
