S3970 Vindoline.cdx
 OpenBabel08302519553D

 65 69  0  0  0  0  0  0  0  0999 V2000
   -6.2895   -0.4164    0.4899 C   0  0  2  0  0  0  0  0  0  0  0  0
   -5.5345   -1.6195    0.0445 C   0  0  3  0  0  0  0  0  0  0  0  0
   -6.1706   -0.5109    2.2725 C   0  0  3  0  0  0  0  0  0  0  0  0
   -7.7039   -0.6394    0.0666 C   0  0  0  0  0  0  0  0  0  0  0  0
   -5.8243    0.7765   -0.4448 C   0  0  0  0  0  0  0  0  0  0  0  0
   -4.5075   -1.6815    1.1640 C   0  0  3  0  0  0  0  0  0  0  0  0
   -5.0426   -1.3206   -1.3195 N   0  0  3  0  0  0  0  0  0  0  0  0
   -4.5056   -1.2452    3.0976 C   0  0  3  0  0  0  0  0  0  0  0  0
   -7.7372   -1.2057    2.3874 N   0  0  0  0  0  0  0  0  0  0  0  0
   -8.5113   -0.9530    1.1227 C   0  0  0  0  0  0  0  0  0  0  0  0
   -8.1489   -0.5636   -1.2786 C   0  0  0  0  0  0  0  0  0  0  0  0
   -4.8637    0.1216   -1.4631 C   0  0  0  0  0  0  0  0  0  0  0  0
   -5.2644   -2.4401    2.6831 C   0  0  3  0  0  0  0  0  0  0  0  0
   -3.5823   -2.8132    0.5705 C   0  0  0  0  0  0  0  0  0  0  0  0
   -3.8449    0.1391    1.3152 C   0  0  0  0  0  0  0  0  0  0  0  0
   -3.8933   -2.1414   -1.7250 C   0  0  0  0  0  0  0  0  0  0  0  0
   -3.2712   -2.1310    4.0463 C   0  0  0  0  0  0  0  0  0  0  0  0
   -2.9600   -1.4019    2.4090 O   0  0  0  0  0  0  0  0  0  0  0  0
   -8.6216   -0.7509    3.4553 C   0  0  0  0  0  0  0  0  0  0  0  0
   -9.9379   -0.9538    0.8090 C   0  0  0  0  0  0  0  0  0  0  0  0
   -9.4838   -0.5589   -1.5712 C   0  0  0  0  0  0  0  0  0  0  0  0
   -5.5044   -2.4976    4.3451 O   0  0  0  0  0  0  0  0  0  0  0  0
   -2.9641   -2.4303   -0.5717 C   0  0  0  0  0  0  0  0  0  0  0  0
   -3.3172    1.0312    2.5728 C   0  0  0  0  0  0  0  0  0  0  0  0
   -2.2076   -1.2581    4.4442 O   0  0  0  0  0  0  0  0  0  0  0  0
   -3.0924   -3.3504    4.0952 O   0  0  0  0  0  0  0  0  0  0  0  0
  -10.3866   -0.7128   -0.5427 C   0  0  0  0  0  0  0  0  0  0  0  0
   -5.6059   -1.4978    5.3102 C   0  0  0  0  0  0  0  0  0  0  0  0
   -0.8410   -1.7722    4.2374 C   0  0  0  0  0  0  0  0  0  0  0  0
  -11.6406   -0.6409   -1.0766 O   0  0  0  0  0  0  0  0  0  0  0  0
   -4.7100   -1.6222    6.5537 C   0  0  0  0  0  0  0  0  0  0  0  0
   -6.0809   -0.4003    5.0805 O   0  0  0  0  0  0  0  0  0  0  0  0
  -12.8224   -0.3870   -0.3549 C   0  0  0  0  0  0  0  0  0  0  0  0
   -6.1361   -2.5425    0.0192 H   0  0  0  0  0  0  0  0  0  0  0  0
   -6.3169    0.4916    2.6870 H   0  0  0  0  0  0  0  0  0  0  0  0
   -5.3950    1.6674    0.0246 H   0  0  0  0  0  0  0  0  0  0  0  0
   -6.6462    1.2590   -0.9873 H   0  0  0  0  0  0  0  0  0  0  0  0
   -7.4608   -0.4340   -2.1098 H   0  0  0  0  0  0  0  0  0  0  0  0
   -3.8339    0.4388   -1.2941 H   0  0  0  0  0  0  0  0  0  0  0  0
   -5.1126    0.4404   -2.4757 H   0  0  0  0  0  0  0  0  0  0  0  0
   -4.8512   -3.4463    2.6159 H   0  0  0  0  0  0  0  0  0  0  0  0
   -4.1526   -3.7474    0.5211 H   0  0  0  0  0  0  0  0  0  0  0  0
   -3.1652    0.3230    0.4983 H   0  0  0  0  0  0  0  0  0  0  0  0
   -4.7074    0.7611    1.2953 H   0  0  0  0  0  0  0  0  0  0  0  0
   -4.2644   -3.0926   -2.1340 H   0  0  0  0  0  0  0  0  0  0  0  0
   -3.3315   -1.6564   -2.5239 H   0  0  0  0  0  0  0  0  0  0  0  0
   -2.3352   -0.7932    2.8343 H   0  0  0  0  0  0  0  0  0  0  0  0
   -8.9114    0.2968    3.3127 H   0  0  0  0  0  0  0  0  0  0  0  0
   -9.5363   -1.3602    3.4838 H   0  0  0  0  0  0  0  0  0  0  0  0
   -8.1756   -0.8716    4.4349 H   0  0  0  0  0  0  0  0  0  0  0  0
  -10.6706   -1.1792    1.5639 H   0  0  0  0  0  0  0  0  0  0  0  0
   -9.8177   -0.3859   -2.5960 H   0  0  0  0  0  0  0  0  0  0  0  0
   -2.2422   -1.6234   -0.4603 H   0  0  0  0  0  0  0  0  0  0  0  0
   -2.2268    1.0279    2.6558 H   0  0  0  0  0  0  0  0  0  0  0  0
   -3.5971    2.0822    2.4217 H   0  0  0  0  0  0  0  0  0  0  0  0
   -3.7512    0.7939    3.5551 H   0  0  0  0  0  0  0  0  0  0  0  0
   -0.1525   -1.1859    4.8542 H   0  0  0  0  0  0  0  0  0  0  0  0
   -0.7311   -2.8338    4.4702 H   0  0  0  0  0  0  0  0  0  0  0  0
   -0.5173   -1.6080    3.1940 H   0  0  0  0  0  0  0  0  0  0  0  0
   -3.7740   -1.0206    6.4156 H   0  0  0  0  0  0  0  0  0  0  0  0
   -5.1841   -1.1611    7.4328 H   0  0  0  0  0  0  0  0  0  0  0  0
   -4.3935   -2.6320    6.8347 H   0  0  0  0  0  0  0  0  0  0  0  0
  -13.1301   -1.2829    0.1813 H   0  0  0  0  0  0  0  0  0  0  0  0
  -12.7467    0.4907    0.2889 H   0  0  0  0  0  0  0  0  0  0  0  0
  -13.6070   -0.1687   -1.0978 H   0  0  0  0  0  0  0  0  0  0  0  0
  1  2  1  0  0  0  0
  1  3  1  0  0  0  0
  1  4  1  6  0  0  0
  1  5  1  0  0  0  0
  2  6  1  0  0  0  0
  2  7  1  0  0  0  0
  2 34  1  0  0  0  0
  3  8  1  0  0  0  0
  3  9  1  0  0  0  0
  3 35  1  0  0  0  0
  4 10  2  0  0  0  0
  4 11  1  0  0  0  0
  5 12  1  0  0  0  0
  5 36  1  0  0  0  0
  5 37  1  0  0  0  0
  6 13  1  0  0  0  0
  6 14  1  0  0  0  0
  6 15  1  0  0  0  0
  7 16  1  0  0  0  0
  7 12  1  0  0  0  0
  8 17  1  0  0  0  0
  8 18  1  0  0  0  0
  8 13  1  0  0  0  0
  9 19  1  0  0  0  0
  9 10  1  0  0  0  0
 10 20  1  0  0  0  0
 11 21  2  0  0  0  0
 11 38  1  0  0  0  0
 12 39  1  0  0  0  0
 12 40  1  0  0  0  0
 13 22  1  0  0  0  0
 13 41  1  0  0  0  0
 14 23  2  3  0  0  0
 14 42  1  0  0  0  0
 15 24  1  0  0  0  0
 15 43  1  0  0  0  0
 15 44  1  0  0  0  0
 16 23  1  0  0  0  0
 16 45  1  0  0  0  0
 16 46  1  0  0  0  0
 17 25  1  0  0  0  0
 17 26  2  0  0  0  0
 18 47  1  0  0  0  0
 19 48  1  0  0  0  0
 19 49  1  0  0  0  0
 19 50  1  0  0  0  0
 20 27  2  0  0  0  0
 20 51  1  0  0  0  0
 21 27  1  0  0  0  0
 21 52  1  0  0  0  0
 22 28  1  0  0  0  0
 23 53  1  0  0  0  0
 24 54  1  0  0  0  0
 24 55  1  0  0  0  0
 24 56  1  0  0  0  0
 25 29  1  0  0  0  0
 27 30  1  0  0  0  0
 28 31  1  0  0  0  0
 28 32  2  0  0  0  0
 29 57  1  0  0  0  0
 29 58  1  0  0  0  0
 29 59  1  0  0  0  0
 30 33  1  0  0  0  0
 31 60  1  0  0  0  0
 31 61  1  0  0  0  0
 31 62  1  0  0  0  0
 33 63  1  0  0  0  0
 33 64  1  0  0  0  0
 33 65  1  0  0  0  0
M  END
>  <Mol_ID>
2112

>  <Formula>
C25H32N2O6

>  <MolWeight>
456.53138

>  <Cat>
S3970

>  <Name>
Vindoline

>  <Synonyms>
N/A

>  <Target>
Microtubule Associated

>  <Form>
free base

>  <CAS>
2182-14-1

>  <URL>
http://selleckchem.com/products/vindoline.html

$$$$
