S3976 Acetylvanillin.cdx
 OpenBabel08302519523D

 24 24  0  0  0  0  0  0  0  0999 V2000
    1.4018   -0.5463   -0.0961 C   0  0  0  0  0  0  0  0  0  0  0  0
    0.4799   -1.4858   -0.5851 C   0  0  0  0  0  0  0  0  0  0  0  0
    1.0053    0.7525    0.2439 C   0  0  0  0  0  0  0  0  0  0  0  0
    2.7654   -0.8562    0.0101 O   0  0  0  0  0  0  0  0  0  0  0  0
   -0.8670   -1.1346   -0.6516 C   0  0  0  0  0  0  0  0  0  0  0  0
    0.9907   -2.6837   -1.0075 O   0  0  0  0  0  0  0  0  0  0  0  0
   -0.3438    1.1013    0.1602 C   0  0  0  0  0  0  0  0  0  0  0  0
    3.0528   -1.9129    0.8729 C   0  0  0  0  0  0  0  0  0  0  0  0
   -1.2769    0.1486   -0.2663 C   0  0  0  0  0  0  0  0  0  0  0  0
    0.0779   -3.7736   -1.0298 C   0  0  0  0  0  0  0  0  0  0  0  0
    4.5035   -2.2749    0.7473 C   0  0  0  0  0  0  0  0  0  0  0  0
    2.2892   -2.4414    1.6723 O   0  0  0  0  0  0  0  0  0  0  0  0
   -2.7131    0.4975   -0.3064 C   0  0  0  0  0  0  0  0  0  0  0  0
   -3.5708   -0.3115   -0.6401 O   0  0  0  0  0  0  0  0  0  0  0  0
    1.7393    1.4809    0.5764 H   0  0  0  0  0  0  0  0  0  0  0  0
   -1.6170   -1.8291   -1.0170 H   0  0  0  0  0  0  0  0  0  0  0  0
   -0.6556    2.1073    0.4295 H   0  0  0  0  0  0  0  0  0  0  0  0
   -0.4783   -3.8536   -0.0892 H   0  0  0  0  0  0  0  0  0  0  0  0
   -0.6001   -3.6888   -1.8848 H   0  0  0  0  0  0  0  0  0  0  0  0
    0.6588   -4.6920   -1.1533 H   0  0  0  0  0  0  0  0  0  0  0  0
    5.0946   -1.6637    1.4319 H   0  0  0  0  0  0  0  0  0  0  0  0
    4.6316   -3.3349    0.9920 H   0  0  0  0  0  0  0  0  0  0  0  0
    4.8483   -2.1311   -0.2805 H   0  0  0  0  0  0  0  0  0  0  0  0
   -2.9802    1.5229   -0.0061 H   0  0  0  0  0  0  0  0  0  0  0  0
  1  2  2  0  0  0  0
  1  3  1  0  0  0  0
  1  4  1  0  0  0  0
  2  5  1  0  0  0  0
  2  6  1  0  0  0  0
  3  7  2  0  0  0  0
  3 15  1  0  0  0  0
  4  8  1  0  0  0  0
  5  9  2  0  0  0  0
  5 16  1  0  0  0  0
  6 10  1  0  0  0  0
  7  9  1  0  0  0  0
  7 17  1  0  0  0  0
  8 11  1  0  0  0  0
  8 12  2  0  0  0  0
  9 13  1  0  0  0  0
 10 18  1  0  0  0  0
 10 19  1  0  0  0  0
 10 20  1  0  0  0  0
 11 21  1  0  0  0  0
 11 22  1  0  0  0  0
 11 23  1  0  0  0  0
 13 14  2  0  0  0  0
 13 24  1  0  0  0  0
M  END
>  <Mol_ID>
1979

>  <Formula>
C10H10O4

>  <MolWeight>
194.184

>  <Cat>
S3976

>  <Name>
Acetylvanillin

>  <Synonyms>
Acetovanillin, Vanillin acetate, 4-Acetoxy-3-methoxybenzaldehyde, 4-Formyl-2-methoxyphenyl acetate

>  <Target>
Others

>  <Form>
free base

>  <CAS>
881-68-5

>  <URL>
http://selleckchem.com/products/acetylvanillin.html

$$$$
