S3986 L(+)-Arabinose.cdx
 OpenBabel08302519523D

 20 20  0  0  0  0  0  0  0  0999 V2000
    0.6909    1.2714   -0.2465 C   0  0  2  0  0  0  0  0  0  0  0  0
    1.3894   -0.0173    0.1980 C   0  0  2  0  0  0  0  0  0  0  0  0
   -0.7880    1.2465    0.2053 C   0  0  2  0  0  0  0  0  0  0  0  0
   -1.4772    0.0984   -0.2851 O   0  0  0  0  0  0  0  0  0  0  0  0
    0.5809   -1.2528   -0.2298 C   0  0  2  0  0  0  0  0  0  0  0  0
   -0.8923   -1.1171    0.1705 C   0  0  0  0  0  0  0  0  0  0  0  0
    0.7897    1.3664   -1.6766 O   0  0  0  0  0  0  0  0  0  0  0  0
    1.6239   -0.0538    1.6180 O   0  0  0  0  0  0  0  0  0  0  0  0
   -1.4675    2.4047   -0.2523 O   0  0  0  0  0  0  0  0  0  0  0  0
    1.1325   -2.4330    0.3636 O   0  0  0  0  0  0  0  0  0  0  0  0
    1.1764    2.1584    0.1812 H   0  0  0  0  0  0  0  0  0  0  0  0
    2.3792   -0.0834   -0.2643 H   0  0  0  0  0  0  0  0  0  0  0  0
   -0.8511    1.2545    1.2967 H   0  0  0  0  0  0  0  0  0  0  0  0
    0.6392   -1.3601   -1.3201 H   0  0  0  0  0  0  0  0  0  0  0  0
   -1.4644   -1.9487   -0.2561 H   0  0  0  0  0  0  0  0  0  0  0  0
   -1.0151   -1.1985    1.2570 H   0  0  0  0  0  0  0  0  0  0  0  0
    1.6442    1.7814   -1.8854 H   0  0  0  0  0  0  0  0  0  0  0  0
    0.7842    0.0155    2.1019 H   0  0  0  0  0  0  0  0  0  0  0  0
   -2.4055    2.2021   -0.1117 H   0  0  0  0  0  0  0  0  0  0  0  0
    1.6253   -2.1435    1.1572 H   0  0  0  0  0  0  0  0  0  0  0  0
  1 11  1  1  0  0  0
  1  7  1  0  0  0  0
  2  1  1  0  0  0  0
  2 12  1  6  0  0  0
  2  8  1  0  0  0  0
  3  1  1  0  0  0  0
  3 13  1  1  0  0  0
  3  9  1  0  0  0  0
  4  3  1  0  0  0  0
  5  2  1  0  0  0  0
  5  6  1  0  0  0  0
  5 14  1  6  0  0  0
  5 10  1  0  0  0  0
  6  4  1  0  0  0  0
  6 15  1  0  0  0  0
  6 16  1  0  0  0  0
  7 17  1  0  0  0  0
  8 18  1  0  0  0  0
  9 19  1  0  0  0  0
 10 20  1  0  0  0  0
M  END
>  <Mol_ID>
1989

>  <Formula>
C5H10O5

>  <MolWeight>
150.1299

>  <Cat>
S3986

>  <Name>
L-Arabinose

>  <Synonyms>
L-Ara

>  <Target>
Others

>  <Form>
free base

>  <CAS>
87-72-9

>  <URL>
http://selleckchem.com/products/l-arabinose.html

$$$$
