S3980 Pyridoxine.cdx
 OpenBabel08302519523D

 23 23  0  0  0  0  0  0  0  0999 V2000
    0.4523    1.5043    0.0890 C   0  0  0  0  0  0  0  0  0  0  0  0
    1.7474    0.9494    0.0619 C   0  0  0  0  0  0  0  0  0  0  0  0
   -0.6400    0.6197    0.0651 C   0  0  0  0  0  0  0  0  0  0  0  0
    0.2503    2.9921    0.0811 C   0  0  0  0  0  0  0  0  0  0  0  0
    1.8710   -0.4370    0.0530 C   0  0  0  0  0  0  0  0  0  0  0  0
    2.9903    1.7912    0.0280 C   0  0  0  0  0  0  0  0  0  0  0  0
   -0.4186   -0.7579    0.0593 C   0  0  0  0  0  0  0  0  0  0  0  0
   -1.9321    1.0815    0.0436 O   0  0  0  0  0  0  0  0  0  0  0  0
    0.1115    3.4124   -1.2710 O   0  0  0  0  0  0  0  0  0  0  0  0
    0.8315   -1.2951    0.0580 N   0  0  0  0  0  0  0  0  0  0  0  0
    2.9760    2.5913   -1.1473 O   0  0  0  0  0  0  0  0  0  0  0  0
   -1.5444   -1.7498    0.0305 C   0  0  0  0  0  0  0  0  0  0  0  0
   -0.6478    3.2838    0.6303 H   0  0  0  0  0  0  0  0  0  0  0  0
    1.0740    3.5426    0.5452 H   0  0  0  0  0  0  0  0  0  0  0  0
    2.8415   -0.9227    0.0342 H   0  0  0  0  0  0  0  0  0  0  0  0
    3.0387    2.4394    0.9089 H   0  0  0  0  0  0  0  0  0  0  0  0
    3.9038    1.1850    0.0244 H   0  0  0  0  0  0  0  0  0  0  0  0
   -1.9374    1.9750   -0.3475 H   0  0  0  0  0  0  0  0  0  0  0  0
    0.9948    3.2777   -1.6687 H   0  0  0  0  0  0  0  0  0  0  0  0
    3.1255    1.9823   -1.8957 H   0  0  0  0  0  0  0  0  0  0  0  0
   -1.4685   -2.3650   -0.8720 H   0  0  0  0  0  0  0  0  0  0  0  0
   -1.4815   -2.4037    0.9060 H   0  0  0  0  0  0  0  0  0  0  0  0
   -2.5310   -1.2792    0.0315 H   0  0  0  0  0  0  0  0  0  0  0  0
  1  2  2  0  0  0  0
  1  3  1  0  0  0  0
  1  4  1  0  0  0  0
  2  5  1  0  0  0  0
  2  6  1  0  0  0  0
  3  7  2  0  0  0  0
  3  8  1  0  0  0  0
  4  9  1  0  0  0  0
  4 13  1  0  0  0  0
  4 14  1  0  0  0  0
  5 10  2  0  0  0  0
  5 15  1  0  0  0  0
  6 11  1  0  0  0  0
  6 16  1  0  0  0  0
  6 17  1  0  0  0  0
  7 12  1  0  0  0  0
  7 10  1  0  0  0  0
  8 18  1  0  0  0  0
  9 19  1  0  0  0  0
 11 20  1  0  0  0  0
 12 21  1  0  0  0  0
 12 22  1  0  0  0  0
 12 23  1  0  0  0  0
M  END
>  <Mol_ID>
1982

>  <Formula>
C8H11NO3

>  <MolWeight>
169.17784

>  <Cat>
S3980

>  <Name>
Pyridoxine

>  <Synonyms>
Pyridoxol, Vitamin B6, Gravidox

>  <Target>
Vitamin

>  <Form>
free base

>  <CAS>
65-23-6

>  <URL>
http://selleckchem.com/products/pyridoxine.html

$$$$
