S3988 Theophylline-7-acetic acid.cdx
 OpenBabel08302519523D

 27 28  0  0  0  0  0  0  0  0999 V2000
    0.2079    0.7291    0.0135 C   0  0  0  0  0  0  0  0  0  0  0  0
    0.2307   -0.6336    0.0040 C   0  0  0  0  0  0  0  0  0  0  0  0
    1.5194    1.1102   -0.0254 N   0  0  0  0  0  0  0  0  0  0  0  0
   -0.9887    1.4811    0.0684 C   0  0  0  0  0  0  0  0  0  0  0  0
   -0.9275   -1.3700    0.0116 N   0  0  0  0  0  0  0  0  0  0  0  0
    1.5026   -1.1145   -0.0148 N   0  0  0  0  0  0  0  0  0  0  0  0
    2.2678   -0.0395   -0.0366 C   0  0  0  0  0  0  0  0  0  0  0  0
    2.0257    2.4660   -0.0396 C   0  0  0  0  0  0  0  0  0  0  0  0
   -2.1371    0.6984    0.0233 N   0  0  0  0  0  0  0  0  0  0  0  0
   -0.9751    2.7110    0.1957 O   0  0  0  0  0  0  0  0  0  0  0  0
   -2.1618   -0.7126    0.0088 C   0  0  0  0  0  0  0  0  0  0  0  0
   -0.8699   -2.8216   -0.0005 C   0  0  0  0  0  0  0  0  0  0  0  0
    2.3014    2.9680    1.3556 C   0  0  0  0  0  0  0  0  0  0  0  0
   -3.4026    1.4056    0.0217 C   0  0  0  0  0  0  0  0  0  0  0  0
   -3.2247   -1.3342   -0.0037 O   0  0  0  0  0  0  0  0  0  0  0  0
    1.2111    3.0309    2.1566 O   0  0  0  0  0  0  0  0  0  0  0  0
    3.4076    3.3150    1.7423 O   0  0  0  0  0  0  0  0  0  0  0  0
    3.3519   -0.0405   -0.0543 H   0  0  0  0  0  0  0  0  0  0  0  0
    2.9334    2.4842   -0.6507 H   0  0  0  0  0  0  0  0  0  0  0  0
    1.2958    3.1258   -0.5218 H   0  0  0  0  0  0  0  0  0  0  0  0
   -0.3391   -3.1534   -0.8978 H   0  0  0  0  0  0  0  0  0  0  0  0
   -0.3381   -3.1661    0.8926 H   0  0  0  0  0  0  0  0  0  0  0  0
   -1.8678   -3.2683   -0.0026 H   0  0  0  0  0  0  0  0  0  0  0  0
   -3.4569    2.0428    0.9104 H   0  0  0  0  0  0  0  0  0  0  0  0
   -3.4431    2.0469   -0.8649 H   0  0  0  0  0  0  0  0  0  0  0  0
   -4.2647    0.7350    0.0125 H   0  0  0  0  0  0  0  0  0  0  0  0
    0.3523    2.9634    1.6865 H   0  0  0  0  0  0  0  0  0  0  0  0
  1  2  2  0  0  0  0
  1  3  1  0  0  0  0
  1  4  1  0  0  0  0
  2  5  1  0  0  0  0
  2  6  1  0  0  0  0
  3  7  1  0  0  0  0
  3  8  1  0  0  0  0
  4  9  1  0  0  0  0
  4 10  2  0  0  0  0
  5 11  1  0  0  0  0
  5 12  1  0  0  0  0
  6  7  2  0  0  0  0
  7 18  1  0  0  0  0
  8 13  1  0  0  0  0
  8 19  1  0  0  0  0
  8 20  1  0  0  0  0
  9 14  1  0  0  0  0
  9 11  1  0  0  0  0
 11 15  2  0  0  0  0
 12 21  1  0  0  0  0
 12 22  1  0  0  0  0
 12 23  1  0  0  0  0
 13 16  1  0  0  0  0
 13 17  2  0  0  0  0
 14 24  1  0  0  0  0
 14 25  1  0  0  0  0
 14 26  1  0  0  0  0
 16 27  1  0  0  0  0
M  END
>  <Mol_ID>
1991

>  <Formula>
C9H10N4O4

>  <MolWeight>
238.2001

>  <Cat>
S3988

>  <Name>
Theophylline-7-acetic acid

>  <Synonyms>
Acefylline, acetyloxytheophylline, Carboxymethyltheophylline

>  <Target>
Adenosine Receptor

>  <Form>
free base

>  <CAS>
652-37-9

>  <URL>
http://selleckchem.com/products/theophylline-7-acetic.html

$$$$
