S3997 Oxaceprol.cdx
 OpenBabel08302519523D

 23 23  0  0  0  0  0  0  0  0999 V2000
   -1.3238   -0.7638   -0.4078 C   0  0  1  0  0  0  0  0  0  0  0  0
   -1.3260    0.7045   -0.2400 N   0  0  0  0  0  0  0  0  0  0  0  0
   -0.1635   -1.2379    0.4825 C   0  0  0  0  0  0  0  0  0  0  0  0
   -2.6236   -1.5004   -0.0241 C   0  0  0  0  0  0  0  0  0  0  0  0
   -0.1632    1.1486    0.5260 C   0  0  0  0  0  0  0  0  0  0  0  0
   -2.1401    1.5275   -0.9740 C   0  0  0  0  0  0  0  0  0  0  0  0
    0.7823   -0.0509    0.5146 C   0  0  2  0  0  0  0  0  0  0  0  0
   -3.7318   -1.0637   -0.6642 O   0  0  0  0  0  0  0  0  0  0  0  0
   -2.6656   -2.4780    0.7125 O   0  0  0  0  0  0  0  0  0  0  0  0
   -2.0731    3.0140   -0.7307 C   0  0  0  0  0  0  0  0  0  0  0  0
   -2.9329    1.0527   -1.7923 O   0  0  0  0  0  0  0  0  0  0  0  0
    1.6004   -0.0442   -0.6558 O   0  0  0  0  0  0  0  0  0  0  0  0
   -1.1101   -0.9842   -1.4604 H   0  0  0  0  0  0  0  0  0  0  0  0
    0.2964   -2.1461    0.0812 H   0  0  0  0  0  0  0  0  0  0  0  0
   -0.5097   -1.4453    1.5024 H   0  0  0  0  0  0  0  0  0  0  0  0
   -0.5091    1.3753    1.5404 H   0  0  0  0  0  0  0  0  0  0  0  0
    0.2895    2.0326    0.0697 H   0  0  0  0  0  0  0  0  0  0  0  0
    1.4483   -0.0640    1.3800 H   0  0  0  0  0  0  0  0  0  0  0  0
   -3.5576   -0.3107   -1.2825 H   0  0  0  0  0  0  0  0  0  0  0  0
   -1.5646    3.4959   -1.5705 H   0  0  0  0  0  0  0  0  0  0  0  0
   -3.0921    3.4046   -0.6477 H   0  0  0  0  0  0  0  0  0  0  0  0
   -1.5588    3.2699    0.1987 H   0  0  0  0  0  0  0  0  0  0  0  0
    1.0592    0.2239   -1.4187 H   0  0  0  0  0  0  0  0  0  0  0  0
  1  2  1  0  0  0  0
  1  3  1  0  0  0  0
  1  4  1  0  0  0  0
  1 13  1  6  0  0  0
  2  5  1  0  0  0  0
  2  6  1  0  0  0  0
  3  7  1  0  0  0  0
  3 14  1  0  0  0  0
  3 15  1  0  0  0  0
  4  8  1  0  0  0  0
  4  9  2  0  0  0  0
  5  7  1  0  0  0  0
  5 16  1  0  0  0  0
  5 17  1  0  0  0  0
  6 10  1  0  0  0  0
  6 11  2  0  0  0  0
  7 12  1  0  0  0  0
  7 18  1  1  0  0  0
  8 19  1  0  0  0  0
 10 20  1  0  0  0  0
 10 21  1  0  0  0  0
 10 22  1  0  0  0  0
 12 23  1  0  0  0  0
M  END
>  <Mol_ID>
1999

>  <Formula>
C7H11NO4

>  <MolWeight>
173.16654

>  <Cat>
S3997

>  <Name>
Oxaceprol

>  <Synonyms>
N-acetyl-L-hydroxyproline

>  <Target>
Immunology & Inflammation related

>  <Form>
free base

>  <CAS>
33996-33-7

>  <URL>
http://selleckchem.com/products/oxaceprol.html

$$$$
