S4556 Carzenide.cdx
 OpenBabel08302519503D

 20 20  0  0  0  0  0  0  0  0999 V2000
    1.3637   -0.2460    0.0683 C   0  0  0  0  0  0  0  0  0  0  0  0
    0.4585   -1.3096    0.0067 C   0  0  0  0  0  0  0  0  0  0  0  0
    0.9088    1.0752    0.0748 C   0  0  0  0  0  0  0  0  0  0  0  0
    3.0901   -0.6014    0.2475 S   0  0  0  0  0  0  0  0  0  0  0  0
   -0.9102   -1.0494   -0.0649 C   0  0  0  0  0  0  0  0  0  0  0  0
   -0.4658    1.3349    0.0064 C   0  0  0  0  0  0  0  0  0  0  0  0
    3.5829   -0.7421   -1.3505 N   0  0  0  0  0  0  0  0  0  0  0  0
    3.7598    0.5654    0.7731 O   0  0  0  0  0  0  0  0  0  0  0  0
    3.2455   -1.9138    0.8276 O   0  0  0  0  0  0  0  0  0  0  0  0
   -1.3784    0.2701   -0.0714 C   0  0  0  0  0  0  0  0  0  0  0  0
   -2.8494    0.4768   -0.1019 C   0  0  0  0  0  0  0  0  0  0  0  0
   -3.2382    1.6116   -0.7174 O   0  0  0  0  0  0  0  0  0  0  0  0
   -3.6357   -0.3333    0.3578 O   0  0  0  0  0  0  0  0  0  0  0  0
    0.8079   -2.3392    0.0344 H   0  0  0  0  0  0  0  0  0  0  0  0
    1.6120    1.9023    0.1552 H   0  0  0  0  0  0  0  0  0  0  0  0
   -1.6136   -1.8811   -0.0978 H   0  0  0  0  0  0  0  0  0  0  0  0
   -0.8053    2.3651    0.0624 H   0  0  0  0  0  0  0  0  0  0  0  0
    4.3727   -0.1162   -1.5167 H   0  0  0  0  0  0  0  0  0  0  0  0
    3.7900   -1.7180   -1.5657 H   0  0  0  0  0  0  0  0  0  0  0  0
   -2.5404    2.0851   -1.2038 H   0  0  0  0  0  0  0  0  0  0  0  0
  1  2  2  0  0  0  0
  1  3  1  0  0  0  0
  1  4  1  0  0  0  0
  2  5  1  0  0  0  0
  2 14  1  0  0  0  0
  3  6  2  0  0  0  0
  3 15  1  0  0  0  0
  4  7  1  0  0  0  0
  4  8  2  0  0  0  0
  4  9  2  0  0  0  0
  5 10  2  0  0  0  0
  5 16  1  0  0  0  0
  6 10  1  0  0  0  0
  6 17  1  0  0  0  0
  7 18  1  0  0  0  0
  7 19  1  0  0  0  0
 10 11  1  0  0  0  0
 11 12  1  0  0  0  0
 11 13  2  0  0  0  0
 12 20  1  0  0  0  0
M  END
>  <Mol_ID>
1513

>  <Formula>
C7H7NO4S

>  <MolWeight>
201.19978

>  <Cat>
S4556

>  <Name>
Carzenide

>  <Synonyms>
4-Sulfamoylbenzoic acid

>  <Target>
Others

>  <Form>
free base

>  <CAS>
138-41-0

>  <URL>
http://selleckchem.com/products/carzenide.html

$$$$
