S4553 Bronopol.cdx
 OpenBabel08302519503D

 15 14  0  0  0  0  0  0  0  0999 V2000
    0.9246    0.0290   -0.0466 C   0  0  0  0  0  0  0  0  0  0  0  0
    0.4096    0.6730   -1.3200 N   0  3  0  0  0  0  0  0  0  0  0  0
    0.4782   -1.4352    0.0237 C   0  0  0  0  0  0  0  0  0  0  0  0
    0.4549    0.8691    1.1444 C   0  0  0  0  0  0  0  0  0  0  0  0
    2.8850    0.0738   -0.2003 Br  0  0  0  0  0  0  0  0  0  0  0  0
   -0.1773   -0.0474   -2.1403 O   0  0  0  0  0  0  0  0  0  0  0  0
    0.5877    1.8913   -1.4655 O   0  5  0  0  0  0  0  0  0  0  0  0
    0.8769   -2.0690    1.2511 O   0  0  0  0  0  0  0  0  0  0  0  0
    0.8424    0.3408    2.4186 O   0  0  0  0  0  0  0  0  0  0  0  0
   -0.6158   -1.5038   -0.0106 H   0  0  0  0  0  0  0  0  0  0  0  0
    0.8670   -2.0401   -0.8055 H   0  0  0  0  0  0  0  0  0  0  0  0
    0.8432    1.8930    1.1021 H   0  0  0  0  0  0  0  0  0  0  0  0
   -0.6392    0.9434    1.1507 H   0  0  0  0  0  0  0  0  0  0  0  0
    1.8318   -2.2744    1.1750 H   0  0  0  0  0  0  0  0  0  0  0  0
    0.6252   -0.6157    2.4370 H   0  0  0  0  0  0  0  0  0  0  0  0
  1  2  1  0  0  0  0
  1  3  1  0  0  0  0
  1  4  1  0  0  0  0
  1  5  1  0  0  0  0
  2  6  2  0  0  0  0
  2  7  1  0  0  0  0
  3  8  1  0  0  0  0
  3 10  1  0  0  0  0
  3 11  1  0  0  0  0
  4  9  1  0  0  0  0
  4 12  1  0  0  0  0
  4 13  1  0  0  0  0
  8 14  1  0  0  0  0
  9 15  1  0  0  0  0
M  CHG  2   2   1   7  -1
M  END
>  <Mol_ID>
1514

>  <Formula>
C3H6BrNO4

>  <MolWeight>
199.98804

>  <Cat>
S4553

>  <Name>
Bronopol

>  <Synonyms>
N/A

>  <Target>
Bacterial

>  <Form>
free base

>  <CAS>
52-51-7

>  <URL>
http://selleckchem.com/products/bronopol.html

$$$$
