S4562 Dehydrocholic acid.cdx
 OpenBabel08302519503D

 63 66  0  0  0  0  0  0  0  0999 V2000
   -0.6134   -0.7940   -0.4080 C   0  0  1  0  0  0  0  0  0  0  0  0
   -1.8989   -0.6029    0.4029 C   0  0  1  0  0  0  0  0  0  0  0  0
    0.2937    0.4646   -0.2204 C   0  0  1  0  0  0  0  0  0  0  0  0
    0.2130   -2.0187   -0.0429 C   0  0  0  0  0  0  0  0  0  0  0  0
   -2.7060    0.6150   -0.1215 C   0  0  1  0  0  0  0  0  0  0  0  0
   -2.9358   -1.7153    0.4033 C   0  0  0  0  0  0  0  0  0  0  0  0
    1.5948    0.3695   -1.1010 C   0  0  2  0  0  0  0  0  0  0  0  0
   -0.4463    1.8218   -0.3496 C   0  0  0  0  0  0  0  0  0  0  0  0
    1.4729   -2.2028   -0.8660 C   0  0  0  0  0  0  0  0  0  0  0  0
   -0.1161   -2.8254    0.8194 O   0  0  0  0  0  0  0  0  0  0  0  0
   -4.0496    0.4852    0.6604 C   0  0  2  0  0  0  0  0  0  0  0  0
   -1.8425    1.8100    0.2590 C   0  0  0  0  0  0  0  0  0  0  0  0
   -2.8680    0.6458   -1.6470 C   0  0  0  0  0  0  0  0  0  0  0  0
   -4.1871   -1.0318    0.9604 C   0  0  0  0  0  0  0  0  0  0  0  0
    2.3601   -0.9565   -0.7555 C   0  0  2  0  0  0  0  0  0  0  0  0
    2.5526    1.5698   -0.8618 C   0  0  0  0  0  0  0  0  0  0  0  0
    1.2545    0.3853   -2.6157 C   0  0  0  0  0  0  0  0  0  0  0  0
   -5.3478    1.1923    0.1200 C   0  0  1  0  0  0  0  0  0  0  0  0
   -2.2510    2.7447    0.9440 O   0  0  0  0  0  0  0  0  0  0  0  0
    3.0032   -0.9257    0.6469 C   0  0  0  0  0  0  0  0  0  0  0  0
    3.1087    1.6348    0.5516 C   0  0  0  0  0  0  0  0  0  0  0  0
   -5.9166    0.7001   -1.2378 C   0  0  0  0  0  0  0  0  0  0  0  0
   -6.4379    1.1214    1.2058 C   0  0  0  0  0  0  0  0  0  0  0  0
    3.7966    0.3373    0.8868 C   0  0  0  0  0  0  0  0  0  0  0  0
   -7.1722    1.4310   -1.7384 C   0  0  0  0  0  0  0  0  0  0  0  0
    4.9064    0.3135    1.4005 O   0  0  0  0  0  0  0  0  0  0  0  0
   -7.5297    1.0091   -3.1493 C   0  0  0  0  0  0  0  0  0  0  0  0
   -8.6288    1.6501   -3.6131 O   0  0  0  0  0  0  0  0  0  0  0  0
   -6.9145    0.2022   -3.8269 O   0  0  0  0  0  0  0  0  0  0  0  0
   -0.8781   -0.9561   -1.4569 H   0  0  0  0  0  0  0  0  0  0  0  0
   -1.6101   -0.4349    1.4530 H   0  0  0  0  0  0  0  0  0  0  0  0
    0.6068    0.4307    0.8331 H   0  0  0  0  0  0  0  0  0  0  0  0
   -3.1202   -2.0950   -0.6059 H   0  0  0  0  0  0  0  0  0  0  0  0
   -2.6436   -2.5652    1.0301 H   0  0  0  0  0  0  0  0  0  0  0  0
    0.1267    2.6030    0.1629 H   0  0  0  0  0  0  0  0  0  0  0  0
   -0.5501    2.1377   -1.3905 H   0  0  0  0  0  0  0  0  0  0  0  0
    1.1801   -2.3927   -1.9040 H   0  0  0  0  0  0  0  0  0  0  0  0
    2.0048   -3.0954   -0.5178 H   0  0  0  0  0  0  0  0  0  0  0  0
   -3.8750    0.9504    1.6438 H   0  0  0  0  0  0  0  0  0  0  0  0
   -3.4419   -0.2107   -2.0109 H   0  0  0  0  0  0  0  0  0  0  0  0
   -3.3298    1.5895   -1.9558 H   0  0  0  0  0  0  0  0  0  0  0  0
   -1.9259    0.6268   -2.2004 H   0  0  0  0  0  0  0  0  0  0  0  0
   -5.0938   -1.4894    0.5582 H   0  0  0  0  0  0  0  0  0  0  0  0
   -4.2134   -1.1725    2.0521 H   0  0  0  0  0  0  0  0  0  0  0  0
    3.1841   -1.0680   -1.4768 H   0  0  0  0  0  0  0  0  0  0  0  0
    2.0589    2.5202   -1.1053 H   0  0  0  0  0  0  0  0  0  0  0  0
    3.3999    1.4928   -1.5583 H   0  0  0  0  0  0  0  0  0  0  0  0
    0.5861   -0.4247   -2.9147 H   0  0  0  0  0  0  0  0  0  0  0  0
    0.7852    1.3269   -2.9142 H   0  0  0  0  0  0  0  0  0  0  0  0
    2.1653    0.2805   -3.2184 H   0  0  0  0  0  0  0  0  0  0  0  0
   -5.0936    2.2540   -0.0051 H   0  0  0  0  0  0  0  0  0  0  0  0
    3.6855   -1.7832    0.7554 H   0  0  0  0  0  0  0  0  0  0  0  0
    2.2604   -0.9975    1.4491 H   0  0  0  0  0  0  0  0  0  0  0  0
    2.3300    1.8253    1.2942 H   0  0  0  0  0  0  0  0  0  0  0  0
    3.8358    2.4534    0.6185 H   0  0  0  0  0  0  0  0  0  0  0  0
   -5.1903    0.8671   -2.0280 H   0  0  0  0  0  0  0  0  0  0  0  0
   -6.0997   -0.3787   -1.2133 H   0  0  0  0  0  0  0  0  0  0  0  0
   -6.1144    1.6477    2.1097 H   0  0  0  0  0  0  0  0  0  0  0  0
   -7.3692    1.5971    0.8885 H   0  0  0  0  0  0  0  0  0  0  0  0
   -6.6700    0.0869    1.4780 H   0  0  0  0  0  0  0  0  0  0  0  0
   -8.0338    1.2017   -1.1049 H   0  0  0  0  0  0  0  0  0  0  0  0
   -6.9919    2.5121   -1.7454 H   0  0  0  0  0  0  0  0  0  0  0  0
   -9.0244    2.2711   -2.9730 H   0  0  0  0  0  0  0  0  0  0  0  0
  1  2  1  0  0  0  0
  1  3  1  0  0  0  0
  1  4  1  0  0  0  0
  1 30  1  6  0  0  0
  2  5  1  0  0  0  0
  2  6  1  0  0  0  0
  2 31  1  1  0  0  0
  3  7  1  0  0  0  0
  3  8  1  0  0  0  0
  3 32  1  1  0  0  0
  4  9  1  0  0  0  0
  4 10  2  0  0  0  0
  5 11  1  0  0  0  0
  5 12  1  0  0  0  0
  5 13  1  6  0  0  0
  6 14  1  0  0  0  0
  6 33  1  0  0  0  0
  6 34  1  0  0  0  0
  7 15  1  0  0  0  0
  7 16  1  0  0  0  0
  7 17  1  6  0  0  0
  8 12  1  0  0  0  0
  8 35  1  0  0  0  0
  8 36  1  0  0  0  0
  9 37  1  0  0  0  0
  9 38  1  0  0  0  0
 11 14  1  0  0  0  0
 11 39  1  1  0  0  0
 11 18  1  0  0  0  0
 12 19  2  0  0  0  0
 13 40  1  0  0  0  0
 13 41  1  0  0  0  0
 13 42  1  0  0  0  0
 14 43  1  0  0  0  0
 14 44  1  0  0  0  0
 15  9  1  0  0  0  0
 15 20  1  0  0  0  0
 15 45  1  6  0  0  0
 16 21  1  0  0  0  0
 16 46  1  0  0  0  0
 16 47  1  0  0  0  0
 17 48  1  0  0  0  0
 17 49  1  0  0  0  0
 17 50  1  0  0  0  0
 18 22  1  0  0  0  0
 18 23  1  0  0  0  0
 18 51  1  6  0  0  0
 20 24  1  0  0  0  0
 20 52  1  0  0  0  0
 20 53  1  0  0  0  0
 21 24  1  0  0  0  0
 21 54  1  0  0  0  0
 21 55  1  0  0  0  0
 22 25  1  0  0  0  0
 22 56  1  0  0  0  0
 22 57  1  0  0  0  0
 23 58  1  0  0  0  0
 23 59  1  0  0  0  0
 23 60  1  0  0  0  0
 24 26  2  0  0  0  0
 25 27  1  0  0  0  0
 25 61  1  0  0  0  0
 25 62  1  0  0  0  0
 27 28  1  0  0  0  0
 27 29  2  0  0  0  0
 28 63  1  0  0  0  0
M  END
>  <Mol_ID>
1560

>  <Formula>
C24H34O5

>  <MolWeight>
402.52376

>  <Cat>
S4562

>  <Name>
Dehydrocholic acid

>  <Synonyms>
Decholin, Dehystolin, Felacrinos, Sanocholen

>  <Target>
Others

>  <Form>
free base

>  <CAS>
81-23-2

>  <URL>
http://selleckchem.com/products/dehydrocholic-acid.html

$$$$
