S4566 DL-Panthenol.cdx
 OpenBabel08302519503D

 33 32  0  0  0  0  0  0  0  0999 V2000
    0.9166    0.1256   -0.1114 C   0  0  3  0  0  0  0  0  0  0  0  0
    0.4913    1.6021    0.0988 C   0  0  0  0  0  0  0  0  0  0  0  0
    0.4593   -0.5661   -1.4283 C   0  0  0  0  0  0  0  0  0  0  0  0
    0.5172   -0.6296    1.0445 O   0  0  0  0  0  0  0  0  0  0  0  0
    0.8990    2.1022    1.3227 N   0  0  0  0  0  0  0  0  0  0  0  0
   -0.1030    2.2901   -0.7250 O   0  0  0  0  0  0  0  0  0  0  0  0
    0.9938   -2.0241   -1.4691 C   0  0  0  0  0  0  0  0  0  0  0  0
   -1.0762   -0.6115   -1.5516 C   0  0  0  0  0  0  0  0  0  0  0  0
    1.0568    0.1604   -2.6513 C   0  0  0  0  0  0  0  0  0  0  0  0
    0.6651    3.4729    1.7220 C   0  0  0  0  0  0  0  0  0  0  0  0
    0.4736   -2.8316   -0.4206 O   0  0  0  0  0  0  0  0  0  0  0  0
    1.7964    4.4125    1.3122 C   0  0  0  0  0  0  0  0  0  0  0  0
    2.0076    4.5385   -0.1930 C   0  0  0  0  0  0  0  0  0  0  0  0
    0.8183    4.9668   -0.8393 O   0  0  0  0  0  0  0  0  0  0  0  0
    2.0149    0.1326   -0.0975 H   0  0  0  0  0  0  0  0  0  0  0  0
   -0.4504   -0.5199    1.1284 H   0  0  0  0  0  0  0  0  0  0  0  0
    1.3473    1.4596    1.9715 H   0  0  0  0  0  0  0  0  0  0  0  0
    0.7198   -2.5077   -2.4137 H   0  0  0  0  0  0  0  0  0  0  0  0
    2.0876   -2.0446   -1.3995 H   0  0  0  0  0  0  0  0  0  0  0  0
   -1.5208    0.3873   -1.5361 H   0  0  0  0  0  0  0  0  0  0  0  0
   -1.3746   -1.0797   -2.4974 H   0  0  0  0  0  0  0  0  0  0  0  0
   -1.5351   -1.1914   -0.7442 H   0  0  0  0  0  0  0  0  0  0  0  0
    0.7606    1.2107   -2.7044 H   0  0  0  0  0  0  0  0  0  0  0  0
    2.1524    0.1261   -2.6295 H   0  0  0  0  0  0  0  0  0  0  0  0
    0.7319   -0.3111   -3.5861 H   0  0  0  0  0  0  0  0  0  0  0  0
   -0.2924    3.8127    1.3129 H   0  0  0  0  0  0  0  0  0  0  0  0
    0.5725    3.4718    2.8141 H   0  0  0  0  0  0  0  0  0  0  0  0
    0.6756   -2.3683    0.4179 H   0  0  0  0  0  0  0  0  0  0  0  0
    1.5634    5.4079    1.7127 H   0  0  0  0  0  0  0  0  0  0  0  0
    2.7360    4.0880    1.7757 H   0  0  0  0  0  0  0  0  0  0  0  0
    2.7863    5.2804   -0.3961 H   0  0  0  0  0  0  0  0  0  0  0  0
    2.3392    3.5954   -0.6398 H   0  0  0  0  0  0  0  0  0  0  0  0
    0.2560    4.1688   -0.9458 H   0  0  0  0  0  0  0  0  0  0  0  0
  1  2  1  0  0  0  0
  1  3  1  0  0  0  0
  1  4  1  0  0  0  0
  1 15  1  0  0  0  0
  2  5  1  0  0  0  0
  2  6  2  0  0  0  0
  3  7  1  0  0  0  0
  3  8  1  0  0  0  0
  3  9  1  0  0  0  0
  4 16  1  0  0  0  0
  5 10  1  0  0  0  0
  5 17  1  0  0  0  0
  7 11  1  0  0  0  0
  7 18  1  0  0  0  0
  7 19  1  0  0  0  0
  8 20  1  0  0  0  0
  8 21  1  0  0  0  0
  8 22  1  0  0  0  0
  9 23  1  0  0  0  0
  9 24  1  0  0  0  0
  9 25  1  0  0  0  0
 10 12  1  0  0  0  0
 10 26  1  0  0  0  0
 10 27  1  0  0  0  0
 11 28  1  0  0  0  0
 12 13  1  0  0  0  0
 12 29  1  0  0  0  0
 12 30  1  0  0  0  0
 13 14  1  0  0  0  0
 13 31  1  0  0  0  0
 13 32  1  0  0  0  0
 14 33  1  0  0  0  0
M  END
>  <Mol_ID>
1509

>  <Formula>
C9H19NO4

>  <MolWeight>
205.25146

>  <Cat>
S4566

>  <Name>
DL-Panthenol

>  <Synonyms>
DL-Pantothenol, DL-Pantothenyl alcohol

>  <Target>
Others

>  <Form>
free base

>  <CAS>
16485-10-2

>  <URL>
http://selleckchem.com/products/dl-panthenol.html

$$$$
