S4576 Sulfabenzamide.cdx
 OpenBabel08302519503D

 31 32  0  0  0  0  0  0  0  0999 V2000
   -1.9072   -0.0427   -0.0495 C   0  0  0  0  0  0  0  0  0  0  0  0
   -3.6822   -0.0536    0.0320 S   0  0  0  0  0  0  0  0  0  0  0  0
   -1.2373    0.9485   -0.7801 C   0  0  0  0  0  0  0  0  0  0  0  0
   -1.1756   -0.9843    0.6738 C   0  0  0  0  0  0  0  0  0  0  0  0
   -4.1432   -1.0572   -1.2194 N   0  0  0  0  0  0  0  0  0  0  0  0
   -4.0917   -0.6331    1.2913 O   0  0  0  0  0  0  0  0  0  0  0  0
   -4.1452    1.2660   -0.3527 O   0  0  0  0  0  0  0  0  0  0  0  0
    0.1634    0.9602   -0.8010 C   0  0  0  0  0  0  0  0  0  0  0  0
    0.2219   -0.9649    0.6378 C   0  0  0  0  0  0  0  0  0  0  0  0
   -3.8632   -2.4271   -1.2806 C   0  0  0  0  0  0  0  0  0  0  0  0
    0.9054    0.0318   -0.0634 C   0  0  0  0  0  0  0  0  0  0  0  0
   -4.2604   -3.1211   -2.5314 C   0  0  0  0  0  0  0  0  0  0  0  0
   -3.2958   -3.0429   -0.3905 O   0  0  0  0  0  0  0  0  0  0  0  0
    2.2951   -0.0393   -0.2131 N   0  0  0  0  0  0  0  0  0  0  0  0
   -4.2466   -2.4908   -3.7832 C   0  0  0  0  0  0  0  0  0  0  0  0
   -4.5982   -4.4790   -2.4433 C   0  0  0  0  0  0  0  0  0  0  0  0
   -4.5533   -3.2245   -4.9346 C   0  0  0  0  0  0  0  0  0  0  0  0
   -4.9151   -5.2019   -3.5941 C   0  0  0  0  0  0  0  0  0  0  0  0
   -4.8870   -4.5766   -4.8391 C   0  0  0  0  0  0  0  0  0  0  0  0
   -1.7878    1.7028   -1.3321 H   0  0  0  0  0  0  0  0  0  0  0  0
   -1.6845   -1.7555    1.2511 H   0  0  0  0  0  0  0  0  0  0  0  0
   -4.8742   -0.6486   -1.7922 H   0  0  0  0  0  0  0  0  0  0  0  0
    0.6751    1.7122   -1.3977 H   0  0  0  0  0  0  0  0  0  0  0  0
    0.7741   -1.7374    1.1693 H   0  0  0  0  0  0  0  0  0  0  0  0
    2.7677   -0.5105    0.5524 H   0  0  0  0  0  0  0  0  0  0  0  0
    2.7329    0.8454   -0.4480 H   0  0  0  0  0  0  0  0  0  0  0  0
   -3.9461   -1.4510   -3.8900 H   0  0  0  0  0  0  0  0  0  0  0  0
   -4.6036   -4.9800   -1.4765 H   0  0  0  0  0  0  0  0  0  0  0  0
   -4.5128   -2.7513   -5.9138 H   0  0  0  0  0  0  0  0  0  0  0  0
   -5.1689   -6.2568   -3.5199 H   0  0  0  0  0  0  0  0  0  0  0  0
   -5.1137   -5.1483   -5.7369 H   0  0  0  0  0  0  0  0  0  0  0  0
  1  2  1  0  0  0  0
  1  3  2  0  0  0  0
  1  4  1  0  0  0  0
  2  5  1  0  0  0  0
  2  6  2  0  0  0  0
  2  7  2  0  0  0  0
  3  8  1  0  0  0  0
  3 20  1  0  0  0  0
  4  9  2  0  0  0  0
  4 21  1  0  0  0  0
  5 10  1  0  0  0  0
  5 22  1  0  0  0  0
  8 11  2  0  0  0  0
  8 23  1  0  0  0  0
  9 11  1  0  0  0  0
  9 24  1  0  0  0  0
 10 12  1  0  0  0  0
 10 13  2  0  0  0  0
 11 14  1  0  0  0  0
 12 15  2  0  0  0  0
 12 16  1  0  0  0  0
 14 25  1  0  0  0  0
 14 26  1  0  0  0  0
 15 17  1  0  0  0  0
 15 27  1  0  0  0  0
 16 18  2  0  0  0  0
 16 28  1  0  0  0  0
 17 19  2  0  0  0  0
 17 29  1  0  0  0  0
 18 19  1  0  0  0  0
 18 30  1  0  0  0  0
 19 31  1  0  0  0  0
M  END
>  <Mol_ID>
1529

>  <Formula>
C13H12N2O3S

>  <MolWeight>
276.31098

>  <Cat>
S4576

>  <Name>
Sulfabenzamide

>  <Synonyms>
Sultrin, N-Sulfanilylbenzamide

>  <Target>
Bacterial

>  <Form>
free base

>  <CAS>
127-71-9

>  <URL>
http://selleckchem.com/products/sulfabenzamide.html

$$$$
