S4594 Cephalothin.cdx
 OpenBabel08302519503D

 41 43  0  0  0  0  0  0  0  0999 V2000
   -0.6968   -0.4931   -0.4870 N   0  0  0  0  0  0  0  0  0  0  0  0
   -0.0178    0.7301   -0.8735 C   0  0  1  0  0  0  0  0  0  0  0  0
   -0.0603   -1.6789   -0.1683 C   0  0  0  0  0  0  0  0  0  0  0  0
   -1.7330    0.1472    0.1326 C   0  0  0  0  0  0  0  0  0  0  0  0
   -1.3736    1.4453   -0.6243 C   0  0  1  0  0  0  0  0  0  0  0  0
    1.3371    1.0725    0.2956 S   0  0  0  0  0  0  0  0  0  0  0  0
    1.2849   -1.7043    0.0305 C   0  0  0  0  0  0  0  0  0  0  0  0
   -0.9298   -3.0167   -0.2277 C   0  0  0  0  0  0  0  0  0  0  0  0
   -2.5117   -0.0902    1.0244 O   0  0  0  0  0  0  0  0  0  0  0  0
   -1.3819    2.7108    0.1658 N   0  0  0  0  0  0  0  0  0  0  0  0
    2.1743   -0.4898   -0.1058 C   0  0  0  0  0  0  0  0  0  0  0  0
    2.0618   -2.9697    0.3825 C   0  0  0  0  0  0  0  0  0  0  0  0
   -2.1583   -2.8875    0.0335 O   0  0  0  0  0  0  0  0  0  0  0  0
   -0.3198   -4.0346   -0.6780 O   0  5  0  0  0  0  0  0  0  0  0  0
   -1.2529    3.9367   -0.4455 C   0  0  0  0  0  0  0  0  0  0  0  0
    1.5598   -3.6029    1.5706 O   0  0  0  0  0  0  0  0  0  0  0  0
   -1.2940    5.1304    0.4892 C   0  0  0  0  0  0  0  0  0  0  0  0
   -1.1003    4.0609   -1.6601 O   0  0  0  0  0  0  0  0  0  0  0  0
    2.0528   -3.1911    2.7609 C   0  0  0  0  0  0  0  0  0  0  0  0
   -2.6894    5.6637    0.6236 C   0  0  0  0  0  0  0  0  0  0  0  0
    1.4852   -4.0092    3.8852 C   0  0  0  0  0  0  0  0  0  0  0  0
    2.8981   -2.3154    2.9252 O   0  0  0  0  0  0  0  0  0  0  0  0
   -3.5252    6.1627   -0.3589 C   0  0  0  0  0  0  0  0  0  0  0  0
   -3.4207    5.7635    2.1715 S   0  0  0  0  0  0  0  0  0  0  0  0
   -4.7661    6.6306    0.1669 C   0  0  0  0  0  0  0  0  0  0  0  0
   -4.8350    6.4795    1.5326 C   0  0  0  0  0  0  0  0  0  0  0  0
    0.2917    0.7406   -1.9263 H   0  0  0  0  0  0  0  0  0  0  0  0
   -1.9858    1.5551   -1.5307 H   0  0  0  0  0  0  0  0  0  0  0  0
   -1.6186    2.6608    1.1527 H   0  0  0  0  0  0  0  0  0  0  0  0
    2.5387   -0.4348   -1.1386 H   0  0  0  0  0  0  0  0  0  0  0  0
    3.0523   -0.5546    0.5414 H   0  0  0  0  0  0  0  0  0  0  0  0
    2.0229   -3.6891   -0.4416 H   0  0  0  0  0  0  0  0  0  0  0  0
    3.1329   -2.7646    0.5033 H   0  0  0  0  0  0  0  0  0  0  0  0
   -0.8632    4.8490    1.4567 H   0  0  0  0  0  0  0  0  0  0  0  0
   -0.6424    5.9082    0.0719 H   0  0  0  0  0  0  0  0  0  0  0  0
    2.2473   -4.7015    4.2524 H   0  0  0  0  0  0  0  0  0  0  0  0
    1.1618   -3.3462    4.6924 H   0  0  0  0  0  0  0  0  0  0  0  0
    0.6160   -4.5854    3.5549 H   0  0  0  0  0  0  0  0  0  0  0  0
   -3.2579    6.1933   -1.4096 H   0  0  0  0  0  0  0  0  0  0  0  0
   -5.5634    7.0586   -0.4273 H   0  0  0  0  0  0  0  0  0  0  0  0
   -5.6501    6.7514    2.1891 H   0  0  0  0  0  0  0  0  0  0  0  0
  1  2  1  0  0  0  0
  1  3  1  0  0  0  0
  1  4  1  0  0  0  0
  2  5  1  0  0  0  0
  2  6  1  0  0  0  0
  2 27  1  6  0  0  0
  3  7  2  0  0  0  0
  3  8  1  0  0  0  0
  4  9  2  0  0  0  0
  4  5  1  0  0  0  0
  5 10  1  0  0  0  0
  5 28  1  6  0  0  0
  6 11  1  0  0  0  0
  7 12  1  0  0  0  0
  7 11  1  0  0  0  0
  8 13  2  0  0  0  0
  8 14  1  0  0  0  0
 10 15  1  0  0  0  0
 10 29  1  0  0  0  0
 11 30  1  0  0  0  0
 11 31  1  0  0  0  0
 12 16  1  0  0  0  0
 12 32  1  0  0  0  0
 12 33  1  0  0  0  0
 15 17  1  0  0  0  0
 15 18  2  0  0  0  0
 16 19  1  0  0  0  0
 17 20  1  0  0  0  0
 17 34  1  0  0  0  0
 17 35  1  0  0  0  0
 19 21  1  0  0  0  0
 19 22  2  0  0  0  0
 20 23  2  0  0  0  0
 20 24  1  0  0  0  0
 21 36  1  0  0  0  0
 21 37  1  0  0  0  0
 21 38  1  0  0  0  0
 23 25  1  0  0  0  0
 23 39  1  0  0  0  0
 24 26  1  0  0  0  0
 25 26  2  0  0  0  0
 25 40  1  0  0  0  0
 26 41  1  0  0  0  0
M  CHG  1  14  -1
M  END
>  <Mol_ID>
1516

>  <Formula>
C16H15N2NaO6S2

>  <MolWeight>
418.41987

>  <Cat>
S4594

>  <Name>
Cephalothin sodium

>  <Synonyms>
Cefalotin sodium, Sodium cephalotin

>  <Target>
Antibiotics,Antibiotics for Mammalian Cell Culture,Bacterial

>  <Form>
sodium

>  <CAS>
58-71-9

>  <URL>
http://selleckchem.com/products/cephalothin.html

$$$$
