S4601 5-Chloro-8-hydroxy-7-iodoquinoline.cdx
 OpenBabel08302519503D

 18 19  0  0  0  0  0  0  0  0999 V2000
    2.0937   -0.4083    0.0142 C   0  0  0  0  0  0  0  0  0  0  0  0
    2.5241    0.9389    0.0072 C   0  0  0  0  0  0  0  0  0  0  0  0
    0.7113   -0.6465    0.0427 C   0  0  0  0  0  0  0  0  0  0  0  0
    2.9862   -1.4256   -0.0115 N   0  0  0  0  0  0  0  0  0  0  0  0
    1.5928    1.9904    0.0382 C   0  0  0  0  0  0  0  0  0  0  0  0
    3.9016    1.1981   -0.0352 C   0  0  0  0  0  0  0  0  0  0  0  0
   -0.2153    0.4053    0.0596 C   0  0  0  0  0  0  0  0  0  0  0  0
    0.2790   -1.9564    0.0496 O   0  0  0  0  0  0  0  0  0  0  0  0
    4.3036   -1.1380   -0.0532 C   0  0  0  0  0  0  0  0  0  0  0  0
    0.2252    1.7253    0.0626 C   0  0  0  0  0  0  0  0  0  0  0  0
    4.8072    0.1456   -0.0695 C   0  0  0  0  0  0  0  0  0  0  0  0
   -2.2755    0.0451    0.0676 I   0  0  0  0  0  0  0  0  0  0  0  0
    1.9295    3.0251    0.0388 H   0  0  0  0  0  0  0  0  0  0  0  0
    4.2755    2.2187   -0.0473 H   0  0  0  0  0  0  0  0  0  0  0  0
   -0.6918   -1.9535    0.0810 H   0  0  0  0  0  0  0  0  0  0  0  0
    4.9616   -2.0020   -0.0758 H   0  0  0  0  0  0  0  0  0  0  0  0
   -0.4772    2.5551    0.0786 H   0  0  0  0  0  0  0  0  0  0  0  0
    5.8757    0.3223   -0.1086 H   0  0  0  0  0  0  0  0  0  0  0  0
  1  2  1  0  0  0  0
  1  3  2  0  0  0  0
  1  4  1  0  0  0  0
  2  5  2  0  0  0  0
  2  6  1  0  0  0  0
  3  7  1  0  0  0  0
  3  8  1  0  0  0  0
  4  9  2  0  0  0  0
  5 10  1  0  0  0  0
  5 13  1  0  0  0  0
  6 11  2  0  0  0  0
  6 14  1  0  0  0  0
  7 12  1  0  0  0  0
  7 10  2  0  0  0  0
  8 15  1  0  0  0  0
  9 11  1  0  0  0  0
  9 16  1  0  0  0  0
 10 17  1  0  0  0  0
 11 18  1  0  0  0  0
M  END
>  <Mol_ID>
1582

>  <Formula>
C9H5ClINO

>  <MolWeight>
305.49957

>  <Cat>
S4601

>  <Name>
Clioquinol

>  <Synonyms>
Iodochlorhydroxyquin, Chinoform

>  <Target>
Fungal

>  <Form>
free base

>  <CAS>
130-26-7

>  <URL>
http://selleckchem.com/products/5-chloro-8-hydroxy-7-iodoquinoline.html

$$$$
