S4602 Acetohydroxamic acid.cdx
 OpenBabel08302519503D

 10  9  0  0  0  0  0  0  0  0999 V2000
    0.9134   -0.0468   -0.0083 C   0  0  0  0  0  0  0  0  0  0  0  0
    0.0865   -0.6973    0.8660 N   0  0  0  0  0  0  0  0  0  0  0  0
    0.2077    0.7462   -1.0725 C   0  0  0  0  0  0  0  0  0  0  0  0
    2.1385   -0.1101    0.0759 O   0  0  0  0  0  0  0  0  0  0  0  0
    0.7007   -1.4588    1.8840 O   0  0  0  0  0  0  0  0  0  0  0  0
   -0.9261   -0.6849    0.8426 H   0  0  0  0  0  0  0  0  0  0  0  0
    0.4954    1.7974   -0.9864 H   0  0  0  0  0  0  0  0  0  0  0  0
    0.4958    0.3634   -2.0553 H   0  0  0  0  0  0  0  0  0  0  0  0
   -0.8795    0.6739   -0.9761 H   0  0  0  0  0  0  0  0  0  0  0  0
    1.6568   -1.3222    1.7015 H   0  0  0  0  0  0  0  0  0  0  0  0
  1  2  1  0  0  0  0
  1  3  1  0  0  0  0
  1  4  2  0  0  0  0
  2  5  1  0  0  0  0
  2  6  1  0  0  0  0
  3  7  1  0  0  0  0
  3  8  1  0  0  0  0
  3  9  1  0  0  0  0
  5 10  1  0  0  0  0
M  END
>  <Mol_ID>
1558

>  <Formula>
C2H5NO2

>  <MolWeight>
75.0666

>  <Cat>
S4602

>  <Name>
Acetohydroxamic acid

>  <Synonyms>
N-Hydroxyacetamide, Methylhydroxamic acid, Acetic acid|oxime, Lithostat,AHA

>  <Target>
Bacterial

>  <Form>
free base

>  <CAS>
546-88-3

>  <URL>
http://selleckchem.com/products/acetohydroxamic-acid.html

$$$$
