S4607 2,2¡ä-Dihydroxy-4-methoxybenzophenone.cdx
 OpenBabel08302519503D

 30 31  0  0  0  0  0  0  0  0999 V2000
    0.1011   -1.2733    0.1050 C   0  0  0  0  0  0  0  0  0  0  0  0
    0.7918   -2.5850    0.1302 C   0  0  0  0  0  0  0  0  0  0  0  0
    0.8382   -0.0868    0.0369 C   0  0  0  0  0  0  0  0  0  0  0  0
   -1.2959   -1.2081    0.1700 C   0  0  0  0  0  0  0  0  0  0  0  0
    0.2221   -3.7861   -0.5328 C   0  0  0  0  0  0  0  0  0  0  0  0
    1.8690   -2.6763    0.7154 O   0  0  0  0  0  0  0  0  0  0  0  0
    0.1840    1.1442   -0.0138 C   0  0  0  0  0  0  0  0  0  0  0  0
    2.2067   -0.0638    0.0024 O   0  0  0  0  0  0  0  0  0  0  0  0
   -1.9496    0.0255    0.1097 C   0  0  0  0  0  0  0  0  0  0  0  0
    0.4840   -5.0626   -0.0194 C   0  0  0  0  0  0  0  0  0  0  0  0
   -0.5529   -3.6616   -1.6959 C   0  0  0  0  0  0  0  0  0  0  0  0
   -1.2129    1.2073    0.0166 C   0  0  0  0  0  0  0  0  0  0  0  0
   -0.0395   -6.1944   -0.6423 C   0  0  0  0  0  0  0  0  0  0  0  0
    1.2362   -5.2763    1.1044 O   0  0  0  0  0  0  0  0  0  0  0  0
   -1.0918   -4.7933   -2.3088 C   0  0  0  0  0  0  0  0  0  0  0  0
   -1.7401    2.4681   -0.0389 O   0  0  0  0  0  0  0  0  0  0  0  0
   -0.8313   -6.0592   -1.7833 C   0  0  0  0  0  0  0  0  0  0  0  0
   -3.1594    2.5718   -0.0150 C   0  0  0  0  0  0  0  0  0  0  0  0
   -1.8966   -2.1089    0.2698 H   0  0  0  0  0  0  0  0  0  0  0  0
    0.7659    2.0611   -0.0712 H   0  0  0  0  0  0  0  0  0  0  0  0
    2.5331   -0.9573    0.2435 H   0  0  0  0  0  0  0  0  0  0  0  0
   -3.0342    0.0269    0.1420 H   0  0  0  0  0  0  0  0  0  0  0  0
   -0.7438   -2.6907   -2.1463 H   0  0  0  0  0  0  0  0  0  0  0  0
    0.1738   -7.1821   -0.2408 H   0  0  0  0  0  0  0  0  0  0  0  0
    1.6728   -4.4308    1.3438 H   0  0  0  0  0  0  0  0  0  0  0  0
   -1.7079   -4.6912   -3.1983 H   0  0  0  0  0  0  0  0  0  0  0  0
   -1.2395   -6.9431   -2.2665 H   0  0  0  0  0  0  0  0  0  0  0  0
   -3.6006    2.1014   -0.9003 H   0  0  0  0  0  0  0  0  0  0  0  0
   -3.5736    2.1461    0.9053 H   0  0  0  0  0  0  0  0  0  0  0  0
   -3.4209    3.6338   -0.0351 H   0  0  0  0  0  0  0  0  0  0  0  0
  1  2  1  0  0  0  0
  1  3  2  0  0  0  0
  1  4  1  0  0  0  0
  2  5  1  0  0  0  0
  2  6  2  0  0  0  0
  3  7  1  0  0  0  0
  3  8  1  0  0  0  0
  4  9  2  0  0  0  0
  4 19  1  0  0  0  0
  5 10  2  0  0  0  0
  5 11  1  0  0  0  0
  7 12  2  0  0  0  0
  7 20  1  0  0  0  0
  8 21  1  0  0  0  0
  9 12  1  0  0  0  0
  9 22  1  0  0  0  0
 10 13  1  0  0  0  0
 10 14  1  0  0  0  0
 11 15  2  0  0  0  0
 11 23  1  0  0  0  0
 12 16  1  0  0  0  0
 13 17  2  0  0  0  0
 13 24  1  0  0  0  0
 14 25  1  0  0  0  0
 15 17  1  0  0  0  0
 15 26  1  0  0  0  0
 16 18  1  0  0  0  0
 17 27  1  0  0  0  0
 18 28  1  0  0  0  0
 18 29  1  0  0  0  0
 18 30  1  0  0  0  0
M  END
>  <Mol_ID>
1562

>  <Formula>
C14H12O4

>  <MolWeight>
244.24268

>  <Cat>
S4607

>  <Name>
2,2¡ä-Dihydroxy-4-methoxybenzophenone

>  <Synonyms>
Dioxybenzone, Dioxybenzon, Advastab 47, Cyasorb UV 24, Benzophenone-8

>  <Target>
Others

>  <Form>
free base

>  <CAS>
131-53-3

>  <URL>
http://selleckchem.com/products/2-2-dihydroxy-4-methoxybenzophenone.html

$$$$
