S4626 ETHOSUXIMIDE.cdx
 OpenBabel08302519503D

 21 21  0  0  0  0  0  0  0  0999 V2000
   -0.7766   -1.0190   -0.1595 C   0  0  3  0  0  0  0  0  0  0  0  0
    0.7210   -0.9556    0.0828 C   0  0  0  0  0  0  0  0  0  0  0  0
   -1.1880    0.4279    0.1796 C   0  0  0  0  0  0  0  0  0  0  0  0
   -1.0635   -1.2972   -1.6555 C   0  0  0  0  0  0  0  0  0  0  0  0
   -1.4611   -2.0245    0.7631 C   0  0  0  0  0  0  0  0  0  0  0  0
    1.1196    0.3320   -0.0793 N   0  0  0  0  0  0  0  0  0  0  0  0
    1.4579   -1.8888    0.3487 O   0  0  0  0  0  0  0  0  0  0  0  0
    0.0838    1.2060   -0.0232 C   0  0  0  0  0  0  0  0  0  0  0  0
   -0.5156   -2.6166   -2.1859 C   0  0  0  0  0  0  0  0  0  0  0  0
    0.1783    2.4212   -0.0501 O   0  0  0  0  0  0  0  0  0  0  0  0
   -1.9839    0.8089   -0.4662 H   0  0  0  0  0  0  0  0  0  0  0  0
   -1.4829    0.5391    1.2295 H   0  0  0  0  0  0  0  0  0  0  0  0
   -2.1482   -1.2801   -1.8230 H   0  0  0  0  0  0  0  0  0  0  0  0
   -0.6447   -0.4926   -2.2741 H   0  0  0  0  0  0  0  0  0  0  0  0
   -1.2520   -1.8021    1.8159 H   0  0  0  0  0  0  0  0  0  0  0  0
   -2.5476   -2.0057    0.6260 H   0  0  0  0  0  0  0  0  0  0  0  0
   -1.1128   -3.0466    0.5841 H   0  0  0  0  0  0  0  0  0  0  0  0
    2.0818    0.6259   -0.0248 H   0  0  0  0  0  0  0  0  0  0  0  0
   -0.9435   -3.4751   -1.6621 H   0  0  0  0  0  0  0  0  0  0  0  0
   -0.7626   -2.7189   -3.2479 H   0  0  0  0  0  0  0  0  0  0  0  0
    0.5741   -2.6612   -2.0992 H   0  0  0  0  0  0  0  0  0  0  0  0
  1  2  1  0  0  0  0
  1  3  1  0  0  0  0
  1  4  1  0  0  0  0
  1  5  1  0  0  0  0
  2  6  1  0  0  0  0
  2  7  2  0  0  0  0
  3  8  1  0  0  0  0
  3 11  1  0  0  0  0
  3 12  1  0  0  0  0
  4  9  1  0  0  0  0
  4 13  1  0  0  0  0
  4 14  1  0  0  0  0
  5 15  1  0  0  0  0
  5 16  1  0  0  0  0
  5 17  1  0  0  0  0
  6  8  1  0  0  0  0
  6 18  1  0  0  0  0
  8 10  2  0  0  0  0
  9 19  1  0  0  0  0
  9 20  1  0  0  0  0
  9 21  1  0  0  0  0
M  END
>  <Mol_ID>
1537

>  <Formula>
C7H11NO2

>  <MolWeight>
141.16774

>  <Cat>
S4626

>  <Name>
Ethosuximide

>  <Synonyms>
Zarontin

>  <Target>
Calcium Channel

>  <Form>
free base

>  <CAS>
77-67-8

>  <URL>
http://selleckchem.com/products/ethosuximide.html

$$$$
