S4624 Methylbenactyzine Bromide.cdx
 OpenBabel08302519503D

 54 54  0  0  0  0  0  0  0  0999 V2000
   -0.0355   -0.1656   -0.2721 C   0  0  0  0  0  0  0  0  0  0  0  0
   -1.5069   -0.5128    0.0724 C   0  0  0  0  0  0  0  0  0  0  0  0
    0.6797    0.8030    0.6963 C   0  0  0  0  0  0  0  0  0  0  0  0
    0.1952    0.4449   -1.7424 C   0  0  0  0  0  0  0  0  0  0  0  0
    0.5664   -1.4779   -0.2816 O   0  0  0  0  0  0  0  0  0  0  0  0
   -1.9379   -0.6158    1.4149 C   0  0  0  0  0  0  0  0  0  0  0  0
   -2.4546   -0.8551   -0.9083 C   0  0  0  0  0  0  0  0  0  0  0  0
    2.0832    0.7874    0.7847 C   0  0  0  0  0  0  0  0  0  0  0  0
   -0.0048    1.7810    1.4438 C   0  0  0  0  0  0  0  0  0  0  0  0
    1.4642    0.1135   -2.1827 O   0  0  0  0  0  0  0  0  0  0  0  0
   -0.6162    1.0145   -2.4656 O   0  0  0  0  0  0  0  0  0  0  0  0
   -3.2810   -0.8217    1.7474 C   0  0  0  0  0  0  0  0  0  0  0  0
   -3.7941   -1.1066   -0.5778 C   0  0  0  0  0  0  0  0  0  0  0  0
    2.7707    1.6903    1.5963 C   0  0  0  0  0  0  0  0  0  0  0  0
    0.6802    2.6575    2.2884 C   0  0  0  0  0  0  0  0  0  0  0  0
    1.8693    0.3164   -3.5697 C   0  0  0  0  0  0  0  0  0  0  0  0
   -4.2174   -1.0375    0.7454 C   0  0  0  0  0  0  0  0  0  0  0  0
    2.0687    2.6215    2.3529 C   0  0  0  0  0  0  0  0  0  0  0  0
    2.0555   -1.0347   -4.3708 C   0  0  0  0  0  0  0  0  0  0  0  0
    0.7161   -1.7339   -4.8129 N   0  3  0  0  0  0  0  0  0  0  0  0
   -0.1787   -0.7072   -5.5768 C   0  0  0  0  0  0  0  0  0  0  0  0
    0.8463   -2.9588   -5.7566 C   0  0  0  0  0  0  0  0  0  0  0  0
    0.0124   -2.2343   -3.5457 C   0  0  0  0  0  0  0  0  0  0  0  0
    0.4655   -0.2060   -6.8783 C   0  0  0  0  0  0  0  0  0  0  0  0
    1.4952   -4.2230   -5.2142 C   0  0  0  0  0  0  0  0  0  0  0  0
    2.3160   -2.7022    2.3932 Br  0  5  0  0  0  0  0  0  0  0  0  0
    0.9771   -1.6450    0.6049 H   0  0  0  0  0  0  0  0  0  0  0  0
   -1.2239   -0.5161    2.2354 H   0  0  0  0  0  0  0  0  0  0  0  0
   -2.1711   -0.9401   -1.9502 H   0  0  0  0  0  0  0  0  0  0  0  0
    2.6615    0.0426    0.2388 H   0  0  0  0  0  0  0  0  0  0  0  0
   -1.0894    1.8580    1.4147 H   0  0  0  0  0  0  0  0  0  0  0  0
   -3.5871   -0.8160    2.7911 H   0  0  0  0  0  0  0  0  0  0  0  0
   -4.5118   -1.3514   -1.3562 H   0  0  0  0  0  0  0  0  0  0  0  0
    3.8538    1.6357    1.6600 H   0  0  0  0  0  0  0  0  0  0  0  0
    0.1253    3.3583    2.9058 H   0  0  0  0  0  0  0  0  0  0  0  0
    1.2182    1.0388   -4.0731 H   0  0  0  0  0  0  0  0  0  0  0  0
    2.8514    0.8064   -3.5240 H   0  0  0  0  0  0  0  0  0  0  0  0
   -5.2642   -1.1803    0.9990 H   0  0  0  0  0  0  0  0  0  0  0  0
    2.6035    3.3034    3.0068 H   0  0  0  0  0  0  0  0  0  0  0  0
    2.6191   -0.8413   -5.2917 H   0  0  0  0  0  0  0  0  0  0  0  0
    2.6093   -1.7629   -3.7737 H   0  0  0  0  0  0  0  0  0  0  0  0
   -1.1250   -1.2075   -5.8034 H   0  0  0  0  0  0  0  0  0  0  0  0
   -0.4006    0.1249   -4.9075 H   0  0  0  0  0  0  0  0  0  0  0  0
   -0.1843   -3.2149   -6.0372 H   0  0  0  0  0  0  0  0  0  0  0  0
    1.3838   -2.6443   -6.6530 H   0  0  0  0  0  0  0  0  0  0  0  0
    0.4469   -3.1738   -3.2147 H   0  0  0  0  0  0  0  0  0  0  0  0
    0.1872   -1.5578   -2.7463 H   0  0  0  0  0  0  0  0  0  0  0  0
   -1.0589   -2.3215   -3.7382 H   0  0  0  0  0  0  0  0  0  0  0  0
    0.5565   -0.9978   -7.6295 H   0  0  0  0  0  0  0  0  0  0  0  0
   -0.1601    0.5691   -7.3308 H   0  0  0  0  0  0  0  0  0  0  0  0
    1.4554    0.2339   -6.7308 H   0  0  0  0  0  0  0  0  0  0  0  0
    1.0146   -4.6341   -4.3244 H   0  0  0  0  0  0  0  0  0  0  0  0
    1.3864   -5.0098   -5.9723 H   0  0  0  0  0  0  0  0  0  0  0  0
    2.5608   -4.0880   -5.0232 H   0  0  0  0  0  0  0  0  0  0  0  0
  1  2  1  0  0  0  0
  1  3  1  0  0  0  0
  1  4  1  0  0  0  0
  1  5  1  0  0  0  0
  2  6  2  0  0  0  0
  2  7  1  0  0  0  0
  3  8  2  0  0  0  0
  3  9  1  0  0  0  0
  4 10  1  0  0  0  0
  4 11  2  0  0  0  0
  5 27  1  0  0  0  0
  6 12  1  0  0  0  0
  6 28  1  0  0  0  0
  7 13  2  0  0  0  0
  7 29  1  0  0  0  0
  8 14  1  0  0  0  0
  8 30  1  0  0  0  0
  9 15  2  0  0  0  0
  9 31  1  0  0  0  0
 10 16  1  0  0  0  0
 12 17  2  0  0  0  0
 12 32  1  0  0  0  0
 13 17  1  0  0  0  0
 13 33  1  0  0  0  0
 14 18  2  0  0  0  0
 14 34  1  0  0  0  0
 15 18  1  0  0  0  0
 15 35  1  0  0  0  0
 16 19  1  0  0  0  0
 16 36  1  0  0  0  0
 16 37  1  0  0  0  0
 17 38  1  0  0  0  0
 18 39  1  0  0  0  0
 19 20  1  0  0  0  0
 19 40  1  0  0  0  0
 19 41  1  0  0  0  0
 20 21  1  0  0  0  0
 20 22  1  0  0  0  0
 20 23  1  0  0  0  0
 21 24  1  0  0  0  0
 21 42  1  0  0  0  0
 21 43  1  0  0  0  0
 22 25  1  0  0  0  0
 22 44  1  0  0  0  0
 22 45  1  0  0  0  0
 23 46  1  0  0  0  0
 23 47  1  0  0  0  0
 23 48  1  0  0  0  0
 24 49  1  0  0  0  0
 24 50  1  0  0  0  0
 24 51  1  0  0  0  0
 25 52  1  0  0  0  0
 25 53  1  0  0  0  0
 25 54  1  0  0  0  0
M  CHG  2  20   1  26  -1
M  END
>  <Mol_ID>
1555

>  <Formula>
C21H28BrNO3

>  <MolWeight>
422.35592

>  <Cat>
S4623

>  <Name>
Methylbenactyzine Bromide

>  <Synonyms>
Gastrimade, Noinarin, Paragone, Semulgin

>  <Target>
AChR

>  <Form>
bromide

>  <CAS>
3166-62-9

>  <URL>
http://selleckchem.com/products/methylbenactyzine-bromide.html

$$$$
