S4638 Desogestrel.cdx
 OpenBabel08302520002D

 53 56  0  0  0  0  0  0  0  0999 V2000
    6.0611    4.1866    0.0000 C   0  0  1  0  0  0  0  0  0  0  0  0
    6.0611    2.8075    0.0000 C   0  0  2  0  0  0  0  0  0  0  0  0
    7.4034    4.5918    0.0000 C   0  0  2  0  0  0  0  0  0  0  0  0
    4.7964    4.8782    0.0000 C   0  0  0  0  0  0  0  0  0  0  0  0
    6.0611    5.5740    0.0000 C   0  0  0  0  0  0  0  0  0  0  0  0
    4.8415    2.1117    0.0000 C   0  0  1  0  0  0  0  0  0  0  0  0
    7.4034    2.3573    0.0000 C   0  0  0  0  0  0  0  0  0  0  0  0
    8.1768    3.4990    0.0000 C   0  0  0  0  0  0  0  0  0  0  0  0
    7.4034    5.9587    0.0000 O   0  0  0  0  0  0  0  0  0  0  0  0
    3.6219    4.1866    0.0000 C   0  0  0  0  0  0  0  0  0  0  0  0
    4.8824    6.2614    0.0000 C   0  0  0  0  0  0  0  0  0  0  0  0
    3.6219    2.8075    0.0000 C   0  0  2  0  0  0  0  0  0  0  0  0
    4.8415    0.6875    0.0000 C   0  0  0  0  0  0  0  0  0  0  0  0
    2.3163    4.7596    0.0000 C   0  0  0  0  0  0  0  0  0  0  0  0
    2.4433    2.1117    0.0000 C   0  0  2  0  0  0  0  0  0  0  0  0
    3.6219    0.0000    0.0000 C   0  0  0  0  0  0  0  0  0  0  0  0
    2.4433    0.6875    0.0000 C   0  0  0  0  0  0  0  0  0  0  0  0
    1.2196    2.8075    0.0000 C   0  0  0  0  0  0  0  0  0  0  0  0
    1.2196    0.0000    0.0000 C   0  0  0  0  0  0  0  0  0  0  0  0
    0.0000    2.1117    0.0000 C   0  0  0  0  0  0  0  0  0  0  0  0
    0.0000    0.6875    0.0000 C   0  0  0  0  0  0  0  0  0  0  0  0
    8.7395    5.0168    0.0000 C   0  0  0  0  0  0  0  0  0  0  0  0
   10.0738    5.4398    0.0000 C   0  0  0  0  0  0  0  0  0  0  0  0
    6.9297    3.4323    0.0000 H   0  0  0  0  0  0  0  0  0  0  0  0
    4.7794    5.9481    0.0000 H   0  0  0  0  0  0  0  0  0  0  0  0
    3.8633    5.4018    0.0000 H   0  0  0  0  0  0  0  0  0  0  0  0
    6.9889    6.1070    0.0000 H   0  0  0  0  0  0  0  0  0  0  0  0
    6.0646    6.6440    0.0000 H   0  0  0  0  0  0  0  0  0  0  0  0
    5.7668    1.5743    0.0000 H   0  0  0  0  0  0  0  0  0  0  0  0
    7.7460    1.3436    0.0000 H   0  0  0  0  0  0  0  0  0  0  0  0
    8.4637    2.2135    0.0000 H   0  0  0  0  0  0  0  0  0  0  0  0
    9.2467    3.5100    0.0000 H   0  0  0  0  0  0  0  0  0  0  0  0
    8.6830    2.5563    0.0000 H   0  0  0  0  0  0  0  0  0  0  0  0
    8.2434    6.4437    0.0000 H   0  0  0  0  0  0  0  0  0  0  0  0
    4.8871    7.3314    0.0000 H   0  0  0  0  0  0  0  0  0  0  0  0
    3.9534    5.7304    0.0000 H   0  0  0  0  0  0  0  0  0  0  0  0
    3.9581    6.8004    0.0000 H   0  0  0  0  0  0  0  0  0  0  0  0
    4.5472    3.3449    0.0000 H   0  0  0  0  0  0  0  0  0  0  0  0
    5.7654    0.1477    0.0000 H   0  0  0  0  0  0  0  0  0  0  0  0
    4.8332   -0.3825    0.0000 H   0  0  0  0  0  0  0  0  0  0  0  0
    2.2030    5.7854    0.0000 H   0  0  0  0  0  0  0  0  0  0  0  0
    1.4846    4.1486    0.0000 H   0  0  0  0  0  0  0  0  0  0  0  0
    2.4346    3.1817    0.0000 H   0  0  0  0  0  0  0  0  0  0  0  0
    3.6140   -1.0700    0.0000 H   0  0  0  0  0  0  0  0  0  0  0  0
    2.6921   -0.5295    0.0000 H   0  0  0  0  0  0  0  0  0  0  0  0
    1.2188    3.8775    0.0000 H   0  0  0  0  0  0  0  0  0  0  0  0
    0.2941    3.3445    0.0000 H   0  0  0  0  0  0  0  0  0  0  0  0
    1.2189   -1.0320    0.0000 H   0  0  0  0  0  0  0  0  0  0  0  0
   -0.9253    2.6491    0.0000 H   0  0  0  0  0  0  0  0  0  0  0  0
   -0.9273    1.5779    0.0000 H   0  0  0  0  0  0  0  0  0  0  0  0
   -0.9239    0.1477    0.0000 H   0  0  0  0  0  0  0  0  0  0  0  0
   -0.9280    1.2201    0.0000 H   0  0  0  0  0  0  0  0  0  0  0  0
   11.0213    5.7402    0.0000 H   0  0  0  0  0  0  0  0  0  0  0  0
  1  2  1  0  0  0  0
  1  3  1  0  0  0  0
  1  4  1  0  0  0  0
  1  5  1  1  0  0  0
  2  6  1  0  0  0  0
  2  7  1  0  0  0  0
  2 24  1  6  0  0  0
  3  8  1  0  0  0  0
  3  9  1  0  0  0  0
  3 22  1  6  0  0  0
  4 10  1  0  0  0  0
  4 25  1  0  0  0  0
  4 26  1  0  0  0  0
  5 11  1  0  0  0  0
  5 27  1  0  0  0  0
  5 28  1  0  0  0  0
  6 12  1  0  0  0  0
  6 13  1  0  0  0  0
  6 29  1  1  0  0  0
  7  8  1  0  0  0  0
  7 30  1  0  0  0  0
  7 31  1  0  0  0  0
  8 32  1  0  0  0  0
  8 33  1  0  0  0  0
  9 34  1  0  0  0  0
 10 14  2  0  0  0  0
 11 35  1  0  0  0  0
 11 36  1  0  0  0  0
 11 37  1  0  0  0  0
 12 10  1  0  0  0  0
 12 15  1  0  0  0  0
 12 38  1  6  0  0  0
 13 16  1  0  0  0  0
 13 39  1  0  0  0  0
 13 40  1  0  0  0  0
 14 41  1  0  0  0  0
 14 42  1  0  0  0  0
 15 17  1  0  0  0  0
 15 18  1  0  0  0  0
 15 43  1  1  0  0  0
 16 17  1  0  0  0  0
 16 44  1  0  0  0  0
 16 45  1  0  0  0  0
 17 19  2  0  0  0  0
 18 20  1  0  0  0  0
 18 46  1  0  0  0  0
 18 47  1  0  0  0  0
 19 21  1  0  0  0  0
 19 48  1  0  0  0  0
 20 21  1  0  0  0  0
 20 49  1  0  0  0  0
 20 50  1  0  0  0  0
 21 51  1  0  0  0  0
 21 52  1  0  0  0  0
 22 23  3  0  0  0  0
 23 53  1  0  0  0  0
M  END
>  <Mol_ID>
1546

>  <Formula>
C22H30O

>  <MolWeight>
310.473

>  <Cat>
S4638

>  <Name>
Desogestrel

>  <Synonyms>
Cerazette, Desogen, Desogestrelum, Org-2969

>  <Target>
Estrogen/progestogen Receptor

>  <Form>
free base

>  <CAS>
54024-22-5

>  <URL>
http://selleckchem.com/products/desogestrel.html

$$$$
