S4641 Tedizolid Phosphate.cdx
 OpenBabel08302519503D

 47 50  0  0  0  0  0  0  0  0999 V2000
    0.3415    1.1991   -0.6592 O   0  0  0  0  0  0  0  0  0  0  0  0
   -0.2051    0.0489   -1.1580 C   0  0  0  0  0  0  0  0  0  0  0  0
   -0.0181   -0.9933   -0.2591 N   0  0  0  0  0  0  0  0  0  0  0  0
    0.5471   -0.4738    0.9567 C   0  0  0  0  0  0  0  0  0  0  0  0
    1.0655    0.8868    0.5368 C   0  0  2  0  0  0  0  0  0  0  0  0
   -0.7528    0.0379   -2.2483 O   0  0  0  0  0  0  0  0  0  0  0  0
    0.8227    2.0065    1.5350 C   0  0  0  0  0  0  0  0  0  0  0  0
    1.5316    1.8259    2.7598 O   0  0  0  0  0  0  0  0  0  0  0  0
   -0.4255   -2.3451   -0.4338 C   0  0  0  0  0  0  0  0  0  0  0  0
   -1.1204   -2.7536   -1.5705 C   0  0  0  0  0  0  0  0  0  0  0  0
   -1.4992   -4.0841   -1.7518 C   0  0  0  0  0  0  0  0  0  0  0  0
   -1.2225   -5.0811   -0.8065 C   0  0  0  0  0  0  0  0  0  0  0  0
   -0.5207   -4.6718    0.3354 C   0  0  0  0  0  0  0  0  0  0  0  0
   -0.1310   -3.3275    0.5223 C   0  0  0  0  0  0  0  0  0  0  0  0
   -2.1415   -4.3843   -2.8899 F   0  0  0  0  0  0  0  0  0  0  0  0
   -2.5620   -9.0794   -1.4811 C   0  0  0  0  0  0  0  0  0  0  0  0
   -1.3677   -8.8868   -0.7942 C   0  0  0  0  0  0  0  0  0  0  0  0
   -0.9192   -7.5821   -0.5603 C   0  0  0  0  0  0  0  0  0  0  0  0
   -1.6589   -6.4805   -1.0102 C   0  0  0  0  0  0  0  0  0  0  0  0
   -2.8473   -6.7926   -1.6784 C   0  0  0  0  0  0  0  0  0  0  0  0
   -3.3096   -8.0425   -1.9213 N   0  0  0  0  0  0  0  0  0  0  0  0
   -2.4748  -11.5690   -1.3813 N   0  0  0  0  0  0  0  0  0  0  0  0
   -3.3471  -12.4610   -1.8817 N   0  0  0  0  0  0  0  0  0  0  0  0
   -4.4084  -11.9567   -2.5207 N   0  0  0  0  0  0  0  0  0  0  0  0
   -4.2447  -10.6440   -2.4518 N   0  0  0  0  0  0  0  0  0  0  0  0
   -3.0724  -10.4195   -1.7603 C   0  0  0  0  0  0  0  0  0  0  0  0
   -3.1566  -13.8759   -1.7223 C   0  0  0  0  0  0  0  0  0  0  0  0
    1.2784    3.1384    3.8580 P   0  0  0  0  0  0  0  0  0  0  0  0
   -0.2298    2.9061    3.9254 O   0  0  0  0  0  0  0  0  0  0  0  0
    1.9216    2.2715    5.0740 O   0  0  0  0  0  0  0  0  0  0  0  0
    1.0253    4.4510    4.9562 O   0  0  0  0  0  0  0  0  0  0  0  0
   -0.2502   -0.4070    1.7056 H   0  0  0  0  0  0  0  0  0  0  0  0
    1.3605   -1.0973    1.3377 H   0  0  0  0  0  0  0  0  0  0  0  0
    2.1294    0.8278    0.2817 H   0  0  0  0  0  0  0  0  0  0  0  0
    1.1320    2.9612    1.0927 H   0  0  0  0  0  0  0  0  0  0  0  0
   -0.2539    2.0847    1.7230 H   0  0  0  0  0  0  0  0  0  0  0  0
   -1.4070   -2.0713   -2.3636 H   0  0  0  0  0  0  0  0  0  0  0  0
   -0.2686   -5.3866    1.1176 H   0  0  0  0  0  0  0  0  0  0  0  0
    0.4142   -3.0907    1.4311 H   0  0  0  0  0  0  0  0  0  0  0  0
   -0.7839   -9.7347   -0.4473 H   0  0  0  0  0  0  0  0  0  0  0  0
    0.0248   -7.4481   -0.0379 H   0  0  0  0  0  0  0  0  0  0  0  0
   -3.5078   -6.0154   -2.0575 H   0  0  0  0  0  0  0  0  0  0  0  0
   -2.1960  -14.1460   -2.1675 H   0  0  0  0  0  0  0  0  0  0  0  0
   -3.1617  -14.1035   -0.6536 H   0  0  0  0  0  0  0  0  0  0  0  0
   -3.9651  -14.4120   -2.2241 H   0  0  0  0  0  0  0  0  0  0  0  0
    2.8728    2.4296    5.1917 H   0  0  0  0  0  0  0  0  0  0  0  0
    0.1209    4.2583    5.2866 H   0  0  0  0  0  0  0  0  0  0  0  0
  1  2  1  0  0  0  0
  1  5  1  0  0  0  0
  2  3  1  0  0  0  0
  2  6  2  0  0  0  0
  3  4  1  0  0  0  0
  3  9  1  0  0  0  0
  4  5  1  0  0  0  0
  4 32  1  0  0  0  0
  4 33  1  0  0  0  0
  5  7  1  0  0  0  0
  5 34  1  6  0  0  0
  7  8  1  0  0  0  0
  7 35  1  0  0  0  0
  7 36  1  0  0  0  0
  8 28  1  0  0  0  0
  9 10  2  0  0  0  0
  9 14  1  0  0  0  0
 10 11  1  0  0  0  0
 10 37  1  0  0  0  0
 11 12  2  0  0  0  0
 11 15  1  0  0  0  0
 12 13  1  0  0  0  0
 12 19  1  0  0  0  0
 13 14  2  0  0  0  0
 13 38  1  0  0  0  0
 14 39  1  0  0  0  0
 16 17  2  0  0  0  0
 16 21  1  0  0  0  0
 16 26  1  0  0  0  0
 17 18  1  0  0  0  0
 17 40  1  0  0  0  0
 18 19  2  0  0  0  0
 18 41  1  0  0  0  0
 19 20  1  0  0  0  0
 20 21  2  0  0  0  0
 20 42  1  0  0  0  0
 22 23  1  0  0  0  0
 22 26  2  0  0  0  0
 23 24  1  0  0  0  0
 23 27  1  0  0  0  0
 24 25  2  0  0  0  0
 25 26  1  0  0  0  0
 27 43  1  0  0  0  0
 27 44  1  0  0  0  0
 27 45  1  0  0  0  0
 28 29  2  0  0  0  0
 28 30  1  0  0  0  0
 28 31  1  0  0  0  0
 30 46  1  0  0  0  0
 31 47  1  0  0  0  0
M  END
>  <Mol_ID>
1556

>  <Formula>
C17H16FN6O6P

>  <MolWeight>
450.3177042

>  <Cat>
S4641

>  <Name>
Tedizolid Phosphate

>  <Synonyms>
TR-701FA

>  <Target>
Antibiotics

>  <Form>
free base

>  <CAS>
856867-55-5

>  <URL>
http://selleckchem.com/products/tedizolid-phosphate.html

$$$$
