S4649 Atipamezole hydrochloride.cdx
 OpenBabel08302519503D

 32 34  0  0  0  0  0  0  0  0999 V2000
    2.4628    0.0249   -0.3857 C   0  0  0  0  0  0  0  0  0  0  0  0
    2.5639   -0.0358   -1.9056 C   0  0  0  0  0  0  0  0  0  0  0  0
    3.2452   -1.0720   -2.5138 N   0  0  0  0  0  0  0  0  0  0  0  0
    1.6312    1.2506    0.1134 C   0  0  0  0  0  0  0  0  0  0  0  0
    1.6388   -1.2046    0.1253 C   0  0  0  0  0  0  0  0  0  0  0  0
    0.2330   -0.6803    0.0743 C   0  0  0  0  0  0  0  0  0  0  0  0
    0.2282    0.7188    0.0665 C   0  0  0  0  0  0  0  0  0  0  0  0
    2.3954    0.2498   -4.0699 N   0  0  0  0  0  0  0  0  0  0  0  0
    3.1148   -0.8774   -3.8052 C   0  0  0  0  0  0  0  0  0  0  0  0
    2.0418    0.8025   -2.8718 C   0  0  0  0  0  0  0  0  0  0  0  0
    3.8737    0.0126    0.2561 C   0  0  0  0  0  0  0  0  0  0  0  0
   -0.9587    1.4288    0.0258 C   0  0  0  0  0  0  0  0  0  0  0  0
   -0.9485   -1.4011    0.0456 C   0  0  0  0  0  0  0  0  0  0  0  0
    4.7552    1.1950   -0.1334 C   0  0  0  0  0  0  0  0  0  0  0  0
   -2.1558    0.7107   -0.0239 C   0  0  0  0  0  0  0  0  0  0  0  0
   -2.1496   -0.6945   -0.0137 C   0  0  0  0  0  0  0  0  0  0  0  0
    1.8718    1.5041    1.1527 H   0  0  0  0  0  0  0  0  0  0  0  0
    1.7556    2.1437   -0.5054 H   0  0  0  0  0  0  0  0  0  0  0  0
    1.7636   -2.0959   -0.4985 H   0  0  0  0  0  0  0  0  0  0  0  0
    1.8832   -1.4532    1.1642 H   0  0  0  0  0  0  0  0  0  0  0  0
    2.1560    0.6014   -4.9864 H   0  0  0  0  0  0  0  0  0  0  0  0
    3.5104   -1.5121   -4.5866 H   0  0  0  0  0  0  0  0  0  0  0  0
    1.4451    1.7017   -2.8145 H   0  0  0  0  0  0  0  0  0  0  0  0
    3.7783    0.0061    1.3497 H   0  0  0  0  0  0  0  0  0  0  0  0
    4.3981   -0.9145   -0.0097 H   0  0  0  0  0  0  0  0  0  0  0  0
   -0.9643    2.5135    0.0188 H   0  0  0  0  0  0  0  0  0  0  0  0
   -0.9419   -2.4862    0.0502 H   0  0  0  0  0  0  0  0  0  0  0  0
    4.9886    1.1857   -1.2025 H   0  0  0  0  0  0  0  0  0  0  0  0
    4.2799    2.1496    0.1096 H   0  0  0  0  0  0  0  0  0  0  0  0
    5.7043    1.1464    0.4108 H   0  0  0  0  0  0  0  0  0  0  0  0
   -3.1021    1.2418   -0.0743 H   0  0  0  0  0  0  0  0  0  0  0  0
   -3.0913   -1.2362   -0.0556 H   0  0  0  0  0  0  0  0  0  0  0  0
  2  1  1  0  0  0  0
  3  2  1  0  0  0  0
  4  1  1  0  0  0  0
  4 17  1  0  0  0  0
  4 18  1  0  0  0  0
  5  1  1  0  0  0  0
  5 19  1  0  0  0  0
  5 20  1  0  0  0  0
  6  5  1  0  0  0  0
  7  4  1  0  0  0  0
  7  6  2  0  0  0  0
  8 10  1  0  0  0  0
  8  9  1  0  0  0  0
  8 21  1  0  0  0  0
  9  3  2  0  0  0  0
  9 22  1  0  0  0  0
 10  2  2  0  0  0  0
 10 23  1  0  0  0  0
 11  1  1  0  0  0  0
 11 24  1  0  0  0  0
 11 25  1  0  0  0  0
 12  7  1  0  0  0  0
 12 26  1  0  0  0  0
 13  6  1  0  0  0  0
 13 27  1  0  0  0  0
 14 11  1  0  0  0  0
 14 28  1  0  0  0  0
 14 29  1  0  0  0  0
 14 30  1  0  0  0  0
 15 12  2  0  0  0  0
 15 31  1  0  0  0  0
 16 13  2  0  0  0  0
 16 15  1  0  0  0  0
 16 32  1  0  0  0  0
M  END
>  <Mol_ID>
1554

>  <Formula>
C14H17ClN2

>  <MolWeight>
248.75118

>  <Cat>
S4649

>  <Name>
Atipamezole hydrochloride

>  <Synonyms>
Antisedan, MPV-1248 hydrochloride, MPV1248 hydrochloride, MPV 1248 hydrochloride

>  <Target>
Adrenergic Receptor

>  <Form>
hydrochloride

>  <CAS>
104075-48-1

>  <URL>
http://selleckchem.com/products/atipamezole-hydrochloride.html

$$$$
