S4656 Parecoxib.cdx
 OpenBabel08302519503D

 44 46  0  0  0  0  0  0  0  0999 V2000
    1.0447   -0.1190    0.0553 S   0  0  0  0  0  0  0  0  0  0  0  0
    0.1207   -0.5517   -1.2751 N   0  0  0  0  0  0  0  0  0  0  0  0
   -1.2464    7.7105    1.0295 N   0  0  0  0  0  0  0  0  0  0  0  0
   -0.7431    5.5027    1.3010 C   0  0  0  0  0  0  0  0  0  0  0  0
   -0.7977    6.6153    0.3960 C   0  0  0  0  0  0  0  0  0  0  0  0
   -1.5360    7.3240    2.3176 O   0  0  0  0  0  0  0  0  0  0  0  0
   -1.2417    6.0080    2.4840 C   0  0  0  0  0  0  0  0  0  0  0  0
    0.2888    0.0101   -2.5374 C   0  0  0  0  0  0  0  0  0  0  0  0
    0.4604    1.5110    0.4454 C   0  0  0  0  0  0  0  0  0  0  0  0
    2.4319   -0.0177   -0.3522 O   0  0  0  0  0  0  0  0  0  0  0  0
    0.6571   -0.9870    1.1411 O   0  0  0  0  0  0  0  0  0  0  0  0
   -0.2857    4.1352    1.0902 C   0  0  0  0  0  0  0  0  0  0  0  0
   -0.4673    6.6565   -1.0305 C   0  0  0  0  0  0  0  0  0  0  0  0
    1.0732    0.9322   -2.7607 O   0  0  0  0  0  0  0  0  0  0  0  0
   -0.5555    1.7296    1.3776 C   0  0  0  0  0  0  0  0  0  0  0  0
    1.1192    2.5883   -0.1427 C   0  0  0  0  0  0  0  0  0  0  0  0
    0.7607    3.8848    0.1943 C   0  0  0  0  0  0  0  0  0  0  0  0
   -0.9382    3.0448    1.6795 C   0  0  0  0  0  0  0  0  0  0  0  0
   -0.5909   -0.5373   -3.6290 C   0  0  0  0  0  0  0  0  0  0  0  0
   -1.5068    5.4774    3.8342 C   0  0  0  0  0  0  0  0  0  0  0  0
    0.0399    7.8247   -1.6080 C   0  0  0  0  0  0  0  0  0  0  0  0
   -0.6471    5.5272   -1.8466 C   0  0  0  0  0  0  0  0  0  0  0  0
   -1.8957    0.2345   -3.7027 C   0  0  0  0  0  0  0  0  0  0  0  0
    0.3561    7.8556   -2.9667 C   0  0  0  0  0  0  0  0  0  0  0  0
   -0.2914    5.5430   -3.1902 C   0  0  0  0  0  0  0  0  0  0  0  0
    0.1937    6.7159   -3.7531 C   0  0  0  0  0  0  0  0  0  0  0  0
   -0.5011   -1.3513   -1.1131 H   0  0  0  0  0  0  0  0  0  0  0  0
   -1.0669    0.9096    1.8729 H   0  0  0  0  0  0  0  0  0  0  0  0
    1.8975    2.4302   -0.8853 H   0  0  0  0  0  0  0  0  0  0  0  0
    1.2739    4.6914   -0.3249 H   0  0  0  0  0  0  0  0  0  0  0  0
   -1.7660    3.1958    2.3653 H   0  0  0  0  0  0  0  0  0  0  0  0
   -0.0512   -0.4509   -4.5777 H   0  0  0  0  0  0  0  0  0  0  0  0
   -0.7808   -1.5991   -3.4538 H   0  0  0  0  0  0  0  0  0  0  0  0
   -0.9666    6.0563    4.5875 H   0  0  0  0  0  0  0  0  0  0  0  0
   -2.5780    5.5193    4.0539 H   0  0  0  0  0  0  0  0  0  0  0  0
   -1.1838    4.4409    3.9479 H   0  0  0  0  0  0  0  0  0  0  0  0
    0.1839    8.7190   -1.0041 H   0  0  0  0  0  0  0  0  0  0  0  0
   -1.0341    4.5983   -1.4431 H   0  0  0  0  0  0  0  0  0  0  0  0
   -2.4451    0.1698   -2.7577 H   0  0  0  0  0  0  0  0  0  0  0  0
   -1.7183    1.2953   -3.9119 H   0  0  0  0  0  0  0  0  0  0  0  0
   -2.5306   -0.1682   -4.4973 H   0  0  0  0  0  0  0  0  0  0  0  0
    0.7263    8.7743   -3.4116 H   0  0  0  0  0  0  0  0  0  0  0  0
   -0.4015    4.6412   -3.7877 H   0  0  0  0  0  0  0  0  0  0  0  0
    0.4395    6.7441   -4.8114 H   0  0  0  0  0  0  0  0  0  0  0  0
  2  1  1  0  0  0  0
  2 27  1  0  0  0  0
  3  5  2  0  0  0  0
  3  6  1  0  0  0  0
  4 12  1  0  0  0  0
  5  4  1  0  0  0  0
  6  7  1  0  0  0  0
  7  4  2  0  0  0  0
  8  2  1  0  0  0  0
  9  1  1  0  0  0  0
 10  1  2  0  0  0  0
 11  1  2  0  0  0  0
 12 17  1  0  0  0  0
 13  5  1  0  0  0  0
 14  8  2  0  0  0  0
 15  9  2  0  0  0  0
 15 28  1  0  0  0  0
 16  9  1  0  0  0  0
 16 29  1  0  0  0  0
 17 16  2  0  0  0  0
 17 30  1  0  0  0  0
 18 12  2  0  0  0  0
 18 15  1  0  0  0  0
 18 31  1  0  0  0  0
 19  8  1  0  0  0  0
 19 32  1  0  0  0  0
 19 33  1  0  0  0  0
 20  7  1  0  0  0  0
 20 34  1  0  0  0  0
 20 35  1  0  0  0  0
 20 36  1  0  0  0  0
 21 13  2  0  0  0  0
 21 37  1  0  0  0  0
 22 13  1  0  0  0  0
 22 38  1  0  0  0  0
 23 19  1  0  0  0  0
 23 39  1  0  0  0  0
 23 40  1  0  0  0  0
 23 41  1  0  0  0  0
 24 21  1  0  0  0  0
 24 26  2  0  0  0  0
 24 42  1  0  0  0  0
 25 22  2  0  0  0  0
 25 43  1  0  0  0  0
 26 25  1  0  0  0  0
 26 44  1  0  0  0  0
M  END
>  <Mol_ID>
1548

>  <Formula>
C19H18N2O4S

>  <MolWeight>
370.42222

>  <Cat>
S4656

>  <Name>
Parecoxib

>  <Synonyms>
SC-69124, Valus-P, Vorth-P

>  <Target>
COX

>  <Form>
free base

>  <CAS>
198470-84-7

>  <URL>
http://selleckchem.com/products/parecoxib.html

$$$$
