S4655 Sulpiride.cdx
 OpenBabel08302519503D

 46 47  0  0  0  0  0  0  0  0999 V2000
    1.4292   -0.2525    0.3024 C   0  0  0  0  0  0  0  0  0  0  0  0
    0.5458   -1.1919   -0.2719 C   0  0  0  0  0  0  0  0  0  0  0  0
    0.8946    0.8831    0.9548 C   0  0  0  0  0  0  0  0  0  0  0  0
    2.8981   -0.4488    0.4307 C   0  0  0  0  0  0  0  0  0  0  0  0
   -0.8426   -0.9698   -0.1704 C   0  0  0  0  0  0  0  0  0  0  0  0
    0.7498   -2.3481   -0.9656 O   0  0  0  0  0  0  0  0  0  0  0  0
   -0.4926    1.0488    1.0651 C   0  0  0  0  0  0  0  0  0  0  0  0
    3.7307    0.6358    0.2105 N   0  0  0  0  0  0  0  0  0  0  0  0
    3.3429   -1.5333    0.7886 O   0  0  0  0  0  0  0  0  0  0  0  0
   -1.3656    0.1303    0.4960 C   0  0  0  0  0  0  0  0  0  0  0  0
    2.0401   -2.8533   -1.2522 C   0  0  0  0  0  0  0  0  0  0  0  0
   -1.1651    2.3625    2.0400 S   0  0  0  0  0  0  0  0  0  0  0  0
    5.1742    0.4648    0.3217 C   0  0  0  0  0  0  0  0  0  0  0  0
   -0.5532    1.9974    3.5621 N   0  0  0  0  0  0  0  0  0  0  0  0
   -0.5494    3.5962    1.6302 O   0  0  0  0  0  0  0  0  0  0  0  0
   -2.5942    2.1874    2.1547 O   0  0  0  0  0  0  0  0  0  0  0  0
    5.9565    1.7887    0.2687 C   0  0  3  0  0  0  0  0  0  0  0  0
    5.6969    2.8124    1.3181 N   0  0  0  0  0  0  0  0  0  0  0  0
    7.4650    1.5658    0.3267 C   0  0  0  0  0  0  0  0  0  0  0  0
    6.8649    3.7160    1.2489 C   0  0  0  0  0  0  0  0  0  0  0  0
    5.5039    2.2423    2.6627 C   0  0  0  0  0  0  0  0  0  0  0  0
    8.0123    2.9538    0.5934 C   0  0  0  0  0  0  0  0  0  0  0  0
    5.1367    3.2853    3.7167 C   0  0  0  0  0  0  0  0  0  0  0  0
    1.5505    1.6030    1.4408 H   0  0  0  0  0  0  0  0  0  0  0  0
   -1.5310   -1.7001   -0.5964 H   0  0  0  0  0  0  0  0  0  0  0  0
    3.3675    1.5578    0.0126 H   0  0  0  0  0  0  0  0  0  0  0  0
   -2.4437    0.2365    0.5916 H   0  0  0  0  0  0  0  0  0  0  0  0
    2.6911   -2.1001   -1.7015 H   0  0  0  0  0  0  0  0  0  0  0  0
    2.4734   -3.3266   -0.3683 H   0  0  0  0  0  0  0  0  0  0  0  0
    1.9129   -3.6528   -1.9909 H   0  0  0  0  0  0  0  0  0  0  0  0
    5.3937   -0.0912    1.2411 H   0  0  0  0  0  0  0  0  0  0  0  0
    5.4841   -0.1811   -0.5092 H   0  0  0  0  0  0  0  0  0  0  0  0
   -0.1646    2.8416    3.9842 H   0  0  0  0  0  0  0  0  0  0  0  0
   -1.2693    1.5474    4.1327 H   0  0  0  0  0  0  0  0  0  0  0  0
    5.7184    2.2655   -0.6931 H   0  0  0  0  0  0  0  0  0  0  0  0
    7.7423    0.8903    1.1452 H   0  0  0  0  0  0  0  0  0  0  0  0
    7.8640    1.1476   -0.6032 H   0  0  0  0  0  0  0  0  0  0  0  0
    7.1814    4.1226    2.2135 H   0  0  0  0  0  0  0  0  0  0  0  0
    6.6002    4.5785    0.6256 H   0  0  0  0  0  0  0  0  0  0  0  0
    4.6593    1.5452    2.6410 H   0  0  0  0  0  0  0  0  0  0  0  0
    6.3829    1.6785    2.9965 H   0  0  0  0  0  0  0  0  0  0  0  0
    8.9007    2.9139    1.2321 H   0  0  0  0  0  0  0  0  0  0  0  0
    8.2956    3.4389   -0.3482 H   0  0  0  0  0  0  0  0  0  0  0  0
    4.2818    3.8888    3.3948 H   0  0  0  0  0  0  0  0  0  0  0  0
    4.8592    2.7835    4.6500 H   0  0  0  0  0  0  0  0  0  0  0  0
    5.9685    3.9561    3.9477 H   0  0  0  0  0  0  0  0  0  0  0  0
  1  2  2  0  0  0  0
  1  3  1  0  0  0  0
  1  4  1  0  0  0  0
  2  5  1  0  0  0  0
  2  6  1  0  0  0  0
  3  7  2  0  0  0  0
  3 24  1  0  0  0  0
  4  8  1  0  0  0  0
  4  9  2  0  0  0  0
  5 10  2  0  0  0  0
  5 25  1  0  0  0  0
  6 11  1  0  0  0  0
  7 12  1  0  0  0  0
  7 10  1  0  0  0  0
  8 13  1  0  0  0  0
  8 26  1  0  0  0  0
 10 27  1  0  0  0  0
 11 28  1  0  0  0  0
 11 29  1  0  0  0  0
 11 30  1  0  0  0  0
 12 14  1  0  0  0  0
 12 15  2  0  0  0  0
 12 16  2  0  0  0  0
 13 17  1  0  0  0  0
 13 31  1  0  0  0  0
 13 32  1  0  0  0  0
 14 33  1  0  0  0  0
 14 34  1  0  0  0  0
 17 18  1  0  0  0  0
 17 19  1  0  0  0  0
 17 35  1  0  0  0  0
 18 20  1  0  0  0  0
 18 21  1  0  0  0  0
 19 22  1  0  0  0  0
 19 36  1  0  0  0  0
 19 37  1  0  0  0  0
 20 22  1  0  0  0  0
 20 38  1  0  0  0  0
 20 39  1  0  0  0  0
 21 23  1  0  0  0  0
 21 40  1  0  0  0  0
 21 41  1  0  0  0  0
 22 42  1  0  0  0  0
 22 43  1  0  0  0  0
 23 44  1  0  0  0  0
 23 45  1  0  0  0  0
 23 46  1  0  0  0  0
M  END
>  <Mol_ID>
1573

>  <Formula>
C15H23N3O4S

>  <MolWeight>
341.42582

>  <Cat>
S4655

>  <Name>
Sulpiride

>  <Synonyms>
Dolmatil, Dobren, Sulpyrid, Aiglonyl, Dogmatil

>  <Target>
Dopamine Receptor

>  <Form>
free base

>  <CAS>
15676-16-1

>  <URL>
http://selleckchem.com/products/sulpiride.html

$$$$
