S4660 Glycopyrrolate.cdx
 OpenBabel08302519503D

 52 53  0  0  0  0  0  0  0  0999 V2000
    0.8485   -0.3048    0.2597 C   0  0  3  0  0  0  0  0  0  0  0  0
    0.3413   -1.3862   -0.7573 C   0  0  0  0  0  0  0  0  0  0  0  0
    0.1945   -0.3218    1.6572 C   0  0  0  0  0  0  0  0  0  0  0  0
    0.5256    1.1266   -0.3107 C   0  0  0  0  0  0  0  0  0  0  0  0
    2.2572   -0.4920    0.4852 O   0  0  0  0  0  0  0  0  0  0  0  0
    0.5570   -2.8488   -0.3277 C   0  0  0  0  0  0  0  0  0  0  0  0
    1.0657   -1.3219   -2.1186 C   0  0  0  0  0  0  0  0  0  0  0  0
    0.9560    0.0500    2.7881 C   0  0  0  0  0  0  0  0  0  0  0  0
   -1.1826   -0.5196    1.8385 C   0  0  0  0  0  0  0  0  0  0  0  0
    1.4279    2.0626    0.1400 O   0  0  0  0  0  0  0  0  0  0  0  0
   -0.4749    1.4367   -0.9563 O   0  0  0  0  0  0  0  0  0  0  0  0
    0.6932   -3.6727   -1.6112 C   0  0  0  0  0  0  0  0  0  0  0  0
    0.8887   -2.6897   -2.7550 C   0  0  0  0  0  0  0  0  0  0  0  0
    0.3680    0.2381    4.0387 C   0  0  0  0  0  0  0  0  0  0  0  0
   -1.7723   -0.3302    3.0936 C   0  0  0  0  0  0  0  0  0  0  0  0
    1.1140    3.4332   -0.1555 C   0  0  3  0  0  0  0  0  0  0  0  0
   -1.0016    0.0595    4.1895 C   0  0  0  0  0  0  0  0  0  0  0  0
    1.3521    3.7871   -1.6157 C   0  0  0  0  0  0  0  0  0  0  0  0
    2.0952    4.3153    0.6043 C   0  0  0  0  0  0  0  0  0  0  0  0
    1.7637    5.2738   -1.6200 N   0  3  0  0  0  0  0  0  0  0  0  0
    2.4890    5.4698   -0.3046 C   0  0  0  0  0  0  0  0  0  0  0  0
    2.6757    5.5118   -2.8213 C   0  0  0  0  0  0  0  0  0  0  0  0
    0.5557    6.1786   -1.7367 C   0  0  0  0  0  0  0  0  0  0  0  0
    2.2436    1.9905   -4.6445 Br  0  5  0  0  0  0  0  0  0  0  0  0
   -0.7304   -1.2503   -0.9548 H   0  0  0  0  0  0  0  0  0  0  0  0
    2.6128   -1.1250   -0.1565 H   0  0  0  0  0  0  0  0  0  0  0  0
    1.4598   -2.9738    0.2782 H   0  0  0  0  0  0  0  0  0  0  0  0
   -0.2844   -3.2157    0.2712 H   0  0  0  0  0  0  0  0  0  0  0  0
    0.6437   -0.5390   -2.7547 H   0  0  0  0  0  0  0  0  0  0  0  0
    2.1347   -1.1128   -2.0204 H   0  0  0  0  0  0  0  0  0  0  0  0
    2.0218    0.2402    2.6921 H   0  0  0  0  0  0  0  0  0  0  0  0
   -1.8256   -0.7780    1.0002 H   0  0  0  0  0  0  0  0  0  0  0  0
    1.5409   -4.3634   -1.5358 H   0  0  0  0  0  0  0  0  0  0  0  0
   -0.1981   -4.2842   -1.7898 H   0  0  0  0  0  0  0  0  0  0  0  0
    1.7580   -2.9566   -3.3700 H   0  0  0  0  0  0  0  0  0  0  0  0
    0.0147   -2.6973   -3.4146 H   0  0  0  0  0  0  0  0  0  0  0  0
    0.9778    0.5506    4.8821 H   0  0  0  0  0  0  0  0  0  0  0  0
   -2.8445   -0.4649    3.2128 H   0  0  0  0  0  0  0  0  0  0  0  0
    0.0879    3.6688    0.1567 H   0  0  0  0  0  0  0  0  0  0  0  0
   -1.4679    0.2302    5.1545 H   0  0  0  0  0  0  0  0  0  0  0  0
    2.2058    3.2108   -1.9809 H   0  0  0  0  0  0  0  0  0  0  0  0
    0.4754    3.6559   -2.2559 H   0  0  0  0  0  0  0  0  0  0  0  0
    1.6372    4.6902    1.5269 H   0  0  0  0  0  0  0  0  0  0  0  0
    2.9888    3.7597    0.9135 H   0  0  0  0  0  0  0  0  0  0  0  0
    2.2179    6.4458    0.1133 H   0  0  0  0  0  0  0  0  0  0  0  0
    3.5683    5.4593   -0.4945 H   0  0  0  0  0  0  0  0  0  0  0  0
    2.1089    5.3060   -3.7329 H   0  0  0  0  0  0  0  0  0  0  0  0
    2.9916    6.5592   -2.7993 H   0  0  0  0  0  0  0  0  0  0  0  0
    3.5483    4.8578   -2.7398 H   0  0  0  0  0  0  0  0  0  0  0  0
   -0.1095    5.9945   -0.8885 H   0  0  0  0  0  0  0  0  0  0  0  0
    0.9032    7.2171   -1.7215 H   0  0  0  0  0  0  0  0  0  0  0  0
    0.0456    5.9689   -2.6818 H   0  0  0  0  0  0  0  0  0  0  0  0
  1  2  1  0  0  0  0
  1  3  1  0  0  0  0
  1  4  1  0  0  0  0
  1  5  1  0  0  0  0
  2  6  1  0  0  0  0
  2  7  1  0  0  0  0
  2 25  1  0  0  0  0
  3  8  2  0  0  0  0
  3  9  1  0  0  0  0
  4 10  1  0  0  0  0
  4 11  2  0  0  0  0
  5 26  1  0  0  0  0
  6 12  1  0  0  0  0
  6 27  1  0  0  0  0
  6 28  1  0  0  0  0
  7 13  1  0  0  0  0
  7 29  1  0  0  0  0
  7 30  1  0  0  0  0
  8 14  1  0  0  0  0
  8 31  1  0  0  0  0
  9 15  2  0  0  0  0
  9 32  1  0  0  0  0
 10 16  1  0  0  0  0
 12 13  1  0  0  0  0
 12 33  1  0  0  0  0
 12 34  1  0  0  0  0
 13 35  1  0  0  0  0
 13 36  1  0  0  0  0
 14 17  2  0  0  0  0
 14 37  1  0  0  0  0
 15 17  1  0  0  0  0
 15 38  1  0  0  0  0
 16 18  1  0  0  0  0
 16 19  1  0  0  0  0
 16 39  1  0  0  0  0
 17 40  1  0  0  0  0
 18 20  1  0  0  0  0
 18 41  1  0  0  0  0
 18 42  1  0  0  0  0
 19 21  1  0  0  0  0
 19 43  1  0  0  0  0
 19 44  1  0  0  0  0
 20 22  1  0  0  0  0
 20 23  1  0  0  0  0
 20 21  1  0  0  0  0
 21 45  1  0  0  0  0
 21 46  1  0  0  0  0
 22 47  1  0  0  0  0
 22 48  1  0  0  0  0
 22 49  1  0  0  0  0
 23 50  1  0  0  0  0
 23 51  1  0  0  0  0
 23 52  1  0  0  0  0
M  CHG  2  20   1  24  -1
M  END
>  <Mol_ID>
1571

>  <Formula>
C19H28BrNO3

>  <MolWeight>
398.33452

>  <Cat>
S4660

>  <Name>
Glycopyrrolate

>  <Synonyms>
Glycopyrrolate bromide, Glycopyrronium bromide, Robinul, Gastrodyn

>  <Target>
AChR

>  <Form>
bromide

>  <CAS>
596-51-0

>  <URL>
http://selleckchem.com/products/glycopyrrolate.html

$$$$
