S4671 Cefradine.cdx
 OpenBabel08302521383D

 43 45  0  0  0  0  0  0  0  0999 V2000
   -0.1467    0.1529   -0.9677 N   0  0  0  0  0  0  0  0  0  0  0  0
   -0.9332    1.1453   -1.6851 C   0  0  1  0  0  0  0  0  0  0  0  0
   -1.0525   -0.0848    0.0041 C   0  0  0  0  0  0  0  0  0  0  0  0
    1.1469   -0.1722   -1.2723 C   0  0  0  0  0  0  0  0  0  0  0  0
   -2.0963    0.8123   -0.7110 C   0  0  1  0  0  0  0  0  0  0  0  0
   -0.0300    2.6993   -1.4989 S   0  0  0  0  0  0  0  0  0  0  0  0
   -0.9712   -0.7833    0.9841 O   0  0  0  0  0  0  0  0  0  0  0  0
    1.8545    0.6742   -2.0746 C   0  0  0  0  0  0  0  0  0  0  0  0
    1.7521   -1.4628   -0.7372 C   0  0  0  0  0  0  0  0  0  0  0  0
   -2.7530    1.9147    0.0324 N   0  0  0  0  0  0  0  0  0  0  0  0
    1.3703    2.0677   -2.4779 C   0  0  0  0  0  0  0  0  0  0  0  0
    3.2229    0.4170   -2.6786 C   0  0  0  0  0  0  0  0  0  0  0  0
    0.9374   -2.2412   -0.0022 O   0  0  0  0  0  0  0  0  0  0  0  0
    2.8861   -1.8464   -0.9802 O   0  0  0  0  0  0  0  0  0  0  0  0
   -3.8609    2.5517   -0.5026 C   0  0  0  0  0  0  0  0  0  0  0  0
   -4.4804    3.6827    0.3751 C   0  0  1  0  0  0  0  0  0  0  0  0
   -4.3210    2.2208   -1.5954 O   0  0  0  0  0  0  0  0  0  0  0  0
   -5.9414    3.4366    0.7055 C   0  0  0  0  0  0  0  0  0  0  0  0
   -3.6964    3.8772    1.6173 N   0  0  0  0  0  0  0  0  0  0  0  0
   -6.2714    2.1946    1.5148 C   0  0  0  0  0  0  0  0  0  0  0  0
   -6.9151    4.2896    0.3159 C   0  0  0  0  0  0  0  0  0  0  0  0
   -7.7176    2.0683    1.9004 C   0  0  0  0  0  0  0  0  0  0  0  0
   -8.3726    4.1363    0.6631 C   0  0  0  0  0  0  0  0  0  0  0  0
   -8.6629    2.9407    1.5215 C   0  0  0  0  0  0  0  0  0  0  0  0
   -1.1570    0.8709   -2.7214 H   0  0  0  0  0  0  0  0  0  0  0  0
   -2.8613    0.1711   -1.1727 H   0  0  0  0  0  0  0  0  0  0  0  0
   -2.3387    2.3521    0.8529 H   0  0  0  0  0  0  0  0  0  0  0  0
    2.1849    2.7899   -2.3560 H   0  0  0  0  0  0  0  0  0  0  0  0
    1.0864    2.0626   -3.5372 H   0  0  0  0  0  0  0  0  0  0  0  0
    3.1805    0.6017   -3.7566 H   0  0  0  0  0  0  0  0  0  0  0  0
    3.9629    1.0991   -2.2461 H   0  0  0  0  0  0  0  0  0  0  0  0
    3.6039   -0.5959   -2.5825 H   0  0  0  0  0  0  0  0  0  0  0  0
    0.2103   -1.7852    0.4720 H   0  0  0  0  0  0  0  0  0  0  0  0
   -4.3722    4.5995   -0.2186 H   0  0  0  0  0  0  0  0  0  0  0  0
   -4.1685    4.6128    2.1482 H   0  0  0  0  0  0  0  0  0  0  0  0
   -3.7801    3.0450    2.1967 H   0  0  0  0  0  0  0  0  0  0  0  0
   -5.9844    1.3020    0.9474 H   0  0  0  0  0  0  0  0  0  0  0  0
   -5.6942    2.1991    2.4442 H   0  0  0  0  0  0  0  0  0  0  0  0
   -6.6696    5.1689   -0.2785 H   0  0  0  0  0  0  0  0  0  0  0  0
   -7.9895    1.2199    2.5233 H   0  0  0  0  0  0  0  0  0  0  0  0
   -8.7028    5.0354    1.1952 H   0  0  0  0  0  0  0  0  0  0  0  0
   -8.9609    4.0644   -0.2587 H   0  0  0  0  0  0  0  0  0  0  0  0
   -9.6907    2.7920    1.8379 H   0  0  0  0  0  0  0  0  0  0  0  0
  1  2  1  0  0  0  0
  1  3  1  0  0  0  0
  1  4  1  0  0  0  0
  2  5  1  0  0  0  0
  2  6  1  0  0  0  0
  2 25  1  6  0  0  0
  3  7  2  0  0  0  0
  3  5  1  0  0  0  0
  4  8  2  0  0  0  0
  4  9  1  0  0  0  0
  5 10  1  0  0  0  0
  5 26  1  6  0  0  0
  6 11  1  0  0  0  0
  8 12  1  0  0  0  0
  8 11  1  0  0  0  0
  9 13  1  0  0  0  0
  9 14  2  0  0  0  0
 10 15  1  0  0  0  0
 10 27  1  0  0  0  0
 11 28  1  0  0  0  0
 11 29  1  0  0  0  0
 12 30  1  0  0  0  0
 12 31  1  0  0  0  0
 12 32  1  0  0  0  0
 13 33  1  0  0  0  0
 15 16  1  0  0  0  0
 15 17  2  0  0  0  0
 16 18  1  0  0  0  0
 16 19  1  0  0  0  0
 16 34  1  6  0  0  0
 18 20  1  0  0  0  0
 18 21  2  0  0  0  0
 19 35  1  0  0  0  0
 19 36  1  0  0  0  0
 20 22  1  0  0  0  0
 20 37  1  0  0  0  0
 20 38  1  0  0  0  0
 21 23  1  0  0  0  0
 21 39  1  0  0  0  0
 22 24  2  0  0  0  0
 22 40  1  0  0  0  0
 23 24  1  0  0  0  0
 23 41  1  0  0  0  0
 23 42  1  0  0  0  0
 24 43  1  0  0  0  0
M  END
>  <Mol_ID>
7770

>  <Formula>
C16H19N3O4S

>  <MolWeight>
349.40476

>  <Cat>
S4671

>  <Name>
Cefradine

>  <Synonyms>
Cephradine, Sefril, Anspor, Cephradin, Velosef

>  <Target>
Antibiotics

>  <Form>
free base

>  <CAS>
38821-53-3

>  <URL>
http://selleckchem.com/products/cefradine.html

$$$$
