S4708 Palmitoylethanolamide.cdx
 OpenBabel08302519503D

 58 57  0  0  0  0  0  0  0  0999 V2000
    1.2613    2.6563   -4.3107 C   0  0  0  0  0  0  0  0  0  0  0  0
    0.8619    1.4371   -3.4748 C   0  0  0  0  0  0  0  0  0  0  0  0
    0.8816    2.5355   -5.7869 C   0  0  0  0  0  0  0  0  0  0  0  0
    1.2089    1.5830   -1.9837 C   0  0  0  0  0  0  0  0  0  0  0  0
    1.3128    3.7664   -6.5704 C   0  0  0  0  0  0  0  0  0  0  0  0
    0.5676    2.7672   -1.2525 C   0  0  0  0  0  0  0  0  0  0  0  0
    1.0048    3.6775   -7.9117 N   0  0  0  0  0  0  0  0  0  0  0  0
    1.8506    4.7425   -6.0731 O   0  0  0  0  0  0  0  0  0  0  0  0
   -0.9601    2.7192   -1.2723 C   0  0  0  0  0  0  0  0  0  0  0  0
    1.2540    4.7830   -8.8226 C   0  0  0  0  0  0  0  0  0  0  0  0
   -1.5540    3.9201   -0.5374 C   0  0  0  0  0  0  0  0  0  0  0  0
    2.6548    4.7129   -9.4229 C   0  0  0  0  0  0  0  0  0  0  0  0
   -3.0812    3.8734   -0.5561 C   0  0  0  0  0  0  0  0  0  0  0  0
    2.8075    3.4954  -10.1533 O   0  0  0  0  0  0  0  0  0  0  0  0
   -3.6824    5.0731    0.1763 C   0  0  0  0  0  0  0  0  0  0  0  0
   -5.2111    5.0202    0.1496 C   0  0  0  0  0  0  0  0  0  0  0  0
   -5.8237    6.2184    0.8767 C   0  0  0  0  0  0  0  0  0  0  0  0
   -7.3543    6.1638    0.8580 C   0  0  0  0  0  0  0  0  0  0  0  0
   -7.9636    7.3643    1.5867 C   0  0  0  0  0  0  0  0  0  0  0  0
   -9.4926    7.3255    1.5674 C   0  0  0  0  0  0  0  0  0  0  0  0
  -10.0860    8.5239    2.2936 C   0  0  0  0  0  0  0  0  0  0  0  0
    2.3458    2.7981   -4.2287 H   0  0  0  0  0  0  0  0  0  0  0  0
    0.7907    3.5586   -3.9065 H   0  0  0  0  0  0  0  0  0  0  0  0
   -0.2056    1.2223   -3.5960 H   0  0  0  0  0  0  0  0  0  0  0  0
    1.3951    0.5562   -3.8563 H   0  0  0  0  0  0  0  0  0  0  0  0
    1.3502    1.6516   -6.2354 H   0  0  0  0  0  0  0  0  0  0  0  0
   -0.2048    2.4446   -5.8978 H   0  0  0  0  0  0  0  0  0  0  0  0
    0.9175    0.6589   -1.4681 H   0  0  0  0  0  0  0  0  0  0  0  0
    2.2980    1.6635   -1.8773 H   0  0  0  0  0  0  0  0  0  0  0  0
    0.9134    2.7583   -0.2104 H   0  0  0  0  0  0  0  0  0  0  0  0
    0.9206    3.7143   -1.6752 H   0  0  0  0  0  0  0  0  0  0  0  0
    0.6187    2.8221   -8.2870 H   0  0  0  0  0  0  0  0  0  0  0  0
   -1.3246    2.7158   -2.3051 H   0  0  0  0  0  0  0  0  0  0  0  0
   -1.3077    1.7899   -0.8039 H   0  0  0  0  0  0  0  0  0  0  0  0
    0.4959    4.7064   -9.6095 H   0  0  0  0  0  0  0  0  0  0  0  0
    1.1165    5.7308   -8.2927 H   0  0  0  0  0  0  0  0  0  0  0  0
   -1.1943    3.9325    0.4981 H   0  0  0  0  0  0  0  0  0  0  0  0
   -1.2090    4.8466   -1.0121 H   0  0  0  0  0  0  0  0  0  0  0  0
    2.8137    5.5449  -10.1151 H   0  0  0  0  0  0  0  0  0  0  0  0
    3.4286    4.7496   -8.6496 H   0  0  0  0  0  0  0  0  0  0  0  0
   -3.4343    3.8572   -1.5946 H   0  0  0  0  0  0  0  0  0  0  0  0
   -3.4283    2.9456   -0.0852 H   0  0  0  0  0  0  0  0  0  0  0  0
    2.7622    2.7828   -9.4924 H   0  0  0  0  0  0  0  0  0  0  0  0
   -3.3284    5.0836    1.2147 H   0  0  0  0  0  0  0  0  0  0  0  0
   -3.3372    6.0043   -0.2896 H   0  0  0  0  0  0  0  0  0  0  0  0
   -5.5565    5.0039   -0.8912 H   0  0  0  0  0  0  0  0  0  0  0  0
   -5.5549    4.0894    0.6173 H   0  0  0  0  0  0  0  0  0  0  0  0
   -5.4661    6.2392    1.9133 H   0  0  0  0  0  0  0  0  0  0  0  0
   -5.4846    7.1467    0.4012 H   0  0  0  0  0  0  0  0  0  0  0  0
   -7.7061    6.1450   -0.1807 H   0  0  0  0  0  0  0  0  0  0  0  0
   -7.6972    5.2354    1.3309 H   0  0  0  0  0  0  0  0  0  0  0  0
   -7.6106    7.3795    2.6250 H   0  0  0  0  0  0  0  0  0  0  0  0
   -7.6185    8.2926    1.1156 H   0  0  0  0  0  0  0  0  0  0  0  0
   -9.8509    7.3215    0.5315 H   0  0  0  0  0  0  0  0  0  0  0  0
   -9.8529    6.4033    2.0384 H   0  0  0  0  0  0  0  0  0  0  0  0
   -9.7534    9.4613    1.8364 H   0  0  0  0  0  0  0  0  0  0  0  0
  -11.1793    8.4943    2.2493 H   0  0  0  0  0  0  0  0  0  0  0  0
   -9.7897    8.5327    3.3476 H   0  0  0  0  0  0  0  0  0  0  0  0
  1  2  1  0  0  0  0
  1  3  1  0  0  0  0
  1 22  1  0  0  0  0
  1 23  1  0  0  0  0
  2  4  1  0  0  0  0
  2 24  1  0  0  0  0
  2 25  1  0  0  0  0
  3  5  1  0  0  0  0
  3 26  1  0  0  0  0
  3 27  1  0  0  0  0
  4  6  1  0  0  0  0
  4 28  1  0  0  0  0
  4 29  1  0  0  0  0
  5  7  1  0  0  0  0
  5  8  2  0  0  0  0
  6  9  1  0  0  0  0
  6 30  1  0  0  0  0
  6 31  1  0  0  0  0
  7 10  1  0  0  0  0
  7 32  1  0  0  0  0
  9 11  1  0  0  0  0
  9 33  1  0  0  0  0
  9 34  1  0  0  0  0
 10 12  1  0  0  0  0
 10 35  1  0  0  0  0
 10 36  1  0  0  0  0
 11 13  1  0  0  0  0
 11 37  1  0  0  0  0
 11 38  1  0  0  0  0
 12 14  1  0  0  0  0
 12 39  1  0  0  0  0
 12 40  1  0  0  0  0
 13 15  1  0  0  0  0
 13 41  1  0  0  0  0
 13 42  1  0  0  0  0
 14 43  1  0  0  0  0
 15 16  1  0  0  0  0
 15 44  1  0  0  0  0
 15 45  1  0  0  0  0
 16 17  1  0  0  0  0
 16 46  1  0  0  0  0
 16 47  1  0  0  0  0
 17 18  1  0  0  0  0
 17 48  1  0  0  0  0
 17 49  1  0  0  0  0
 18 19  1  0  0  0  0
 18 50  1  0  0  0  0
 18 51  1  0  0  0  0
 19 20  1  0  0  0  0
 19 52  1  0  0  0  0
 19 53  1  0  0  0  0
 20 21  1  0  0  0  0
 20 54  1  0  0  0  0
 20 55  1  0  0  0  0
 21 56  1  0  0  0  0
 21 57  1  0  0  0  0
 21 58  1  0  0  0  0
M  END
>  <Mol_ID>
1602

>  <Formula>
C18H37NO2

>  <MolWeight>
299.49188

>  <Cat>
S4708

>  <Name>
Palmitoylethanolamide

>  <Synonyms>
Palmidrol|N-palmitoylethanolamine

>  <Target>
PPAR

>  <Form>
free base

>  <CAS>
544-31-0

>  <URL>
http://selleckchem.com/products/palmitoylethanolamide.html

$$$$
