S4701 2-Deoxy-D-glucose.cdx
 OpenBabel08302519503D

 23 23  0  0  0  0  0  0  0  0999 V2000
    0.7354    1.1752   -0.3198 C   0  0  2  0  0  0  0  0  0  0  0  0
    1.4451   -0.1002    0.1834 C   0  0  2  0  0  0  0  0  0  0  0  0
   -0.6609    1.2098    0.0123 O   0  0  0  0  0  0  0  0  0  0  0  0
    0.9746    1.5211   -1.8024 C   0  0  0  0  0  0  0  0  0  0  0  0
    0.6616   -1.3781   -0.1426 C   0  0  1  0  0  0  0  0  0  0  0  0
    1.5823   -0.0410    1.6163 O   0  0  0  0  0  0  0  0  0  0  0  0
   -1.4201    0.0378   -0.2357 C   0  0  3  0  0  0  0  0  0  0  0  0
   -0.7892   -1.2381    0.3036 C   0  0  0  0  0  0  0  0  0  0  0  0
    0.7671   -1.6835   -1.5363 O   0  0  0  0  0  0  0  0  0  0  0  0
   -1.7695   -0.1066   -1.6001 O   0  0  0  0  0  0  0  0  0  0  0  0
    0.5390    0.5192   -2.7144 O   0  0  0  0  0  0  0  0  0  0  0  0
    1.1562    2.0212    0.2374 H   0  0  0  0  0  0  0  0  0  0  0  0
    2.4560   -0.1540   -0.2350 H   0  0  0  0  0  0  0  0  0  0  0  0
    0.4147    2.4281   -2.0549 H   0  0  0  0  0  0  0  0  0  0  0  0
    2.0389    1.7131   -1.9896 H   0  0  0  0  0  0  0  0  0  0  0  0
    1.1032   -2.2261    0.3964 H   0  0  0  0  0  0  0  0  0  0  0  0
    1.9703    0.8140    1.8537 H   0  0  0  0  0  0  0  0  0  0  0  0
   -2.3709    0.1793    0.2886 H   0  0  0  0  0  0  0  0  0  0  0  0
   -1.3688   -2.1083   -0.0262 H   0  0  0  0  0  0  0  0  0  0  0  0
   -0.8153   -1.2081    1.4001 H   0  0  0  0  0  0  0  0  0  0  0  0
   -0.1323   -1.8860   -1.8664 H   0  0  0  0  0  0  0  0  0  0  0  0
   -1.0145    0.2242   -2.1269 H   0  0  0  0  0  0  0  0  0  0  0  0
    1.0863   -0.2824   -2.5586 H   0  0  0  0  0  0  0  0  0  0  0  0
  1  2  1  0  0  0  0
  1  3  1  0  0  0  0
  1 12  1  1  0  0  0
  1  4  1  0  0  0  0
  2  5  1  0  0  0  0
  2 13  1  6  0  0  0
  2  6  1  0  0  0  0
  3  7  1  0  0  0  0
  4 11  1  0  0  0  0
  4 14  1  0  0  0  0
  4 15  1  0  0  0  0
  5  8  1  0  0  0  0
  5  9  1  0  0  0  0
  5 16  1  1  0  0  0
  6 17  1  0  0  0  0
  7 10  1  0  0  0  0
  7  8  1  0  0  0  0
  7 18  1  0  0  0  0
  8 19  1  0  0  0  0
  8 20  1  0  0  0  0
  9 21  1  0  0  0  0
 10 22  1  0  0  0  0
 11 23  1  0  0  0  0
M  END
>  <Mol_ID>
1609

>  <Formula>
C6H12O5

>  <MolWeight>
164.15648

>  <Cat>
S4701

>  <Name>
2-Deoxy-D-glucose (2-DG)

>  <Synonyms>
2-deoxyglucose, NSC 15193, 2-Deoxy-D-arabino-hexose, D-Arabino-2-deoxyhexose

>  <Target>
Apoptosis related,Carbohydrate Metabolism,HSV

>  <Form>
free base

>  <CAS>
154-17-6

>  <URL>
http://selleckchem.com/products/2-deoxy-d-glucose.html

$$$$
