S4717 Isatin.cdx
 OpenBabel08302519503D

 16 17  0  0  0  0  0  0  0  0999 V2000
    0.7177   -1.4774   -0.0741 N   0  0  0  0  0  0  0  0  0  0  0  0
    1.7486   -0.5572   -0.0203 C   0  0  0  0  0  0  0  0  0  0  0  0
    2.9398   -0.7702   -0.0035 O   0  0  0  0  0  0  0  0  0  0  0  0
    1.0550    0.8332    0.0242 C   0  0  0  0  0  0  0  0  0  0  0  0
    1.5829    1.9203    0.0436 O   0  0  0  0  0  0  0  0  0  0  0  0
   -0.3806    0.5439    0.0234 C   0  0  0  0  0  0  0  0  0  0  0  0
   -1.4630    1.3978    0.0823 C   0  0  0  0  0  0  0  0  0  0  0  0
   -2.7311    0.8125    0.0645 C   0  0  0  0  0  0  0  0  0  0  0  0
   -2.8788   -0.5885   -0.0174 C   0  0  0  0  0  0  0  0  0  0  0  0
   -1.7629   -1.4329   -0.0739 C   0  0  0  0  0  0  0  0  0  0  0  0
   -0.5188   -0.8405   -0.0470 C   0  0  0  0  0  0  0  0  0  0  0  0
    0.8761   -2.4736   -0.1081 H   0  0  0  0  0  0  0  0  0  0  0  0
   -1.3304    2.4728    0.1443 H   0  0  0  0  0  0  0  0  0  0  0  0
   -3.6171    1.4431    0.1144 H   0  0  0  0  0  0  0  0  0  0  0  0
   -3.8798   -1.0175   -0.0341 H   0  0  0  0  0  0  0  0  0  0  0  0
   -1.8857   -2.5086   -0.1353 H   0  0  0  0  0  0  0  0  0  0  0  0
  1  2  1  0  0  0  0
  1 11  1  0  0  0  0
  1 12  1  0  0  0  0
  2  3  2  0  0  0  0
  2  4  1  0  0  0  0
  4  5  2  0  0  0  0
  4  6  1  0  0  0  0
  6  7  2  0  0  0  0
  6 11  1  0  0  0  0
  7  8  1  0  0  0  0
  7 13  1  0  0  0  0
  8  9  2  0  0  0  0
  8 14  1  0  0  0  0
  9 10  1  0  0  0  0
  9 15  1  0  0  0  0
 10 11  2  0  0  0  0
 10 16  1  0  0  0  0
M  END
>  <Mol_ID>
1600

>  <Formula>
C8H5NO2

>  <MolWeight>
147.1308

>  <Cat>
S4717

>  <Name>
Isatin

>  <Synonyms>
2,3-Indolinedione

>  <Target>
MAO

>  <Form>
free base

>  <CAS>
91-56-5

>  <URL>
http://selleckchem.com/products/isatin.html

$$$$
