S4710 Picolinamide.cdx
 OpenBabel08302519503D

 15 15  0  0  0  0  0  0  0  0999 V2000
   -0.7125    1.1757   -0.0011 C   0  0  0  0  0  0  0  0  0  0  0  0
    0.6748    1.2579   -0.0010 C   0  0  0  0  0  0  0  0  0  0  0  0
   -1.4041   -0.0004    0.0030 N   0  0  0  0  0  0  0  0  0  0  0  0
   -1.5199    2.4372   -0.0097 C   0  0  0  0  0  0  0  0  0  0  0  0
    1.4055    0.0745    0.0007 C   0  0  0  0  0  0  0  0  0  0  0  0
   -0.6580   -1.1281    0.0054 C   0  0  0  0  0  0  0  0  0  0  0  0
   -2.8789    2.2778   -0.0098 N   0  0  0  0  0  0  0  0  0  0  0  0
   -1.0063    3.5500   -0.0179 O   0  0  0  0  0  0  0  0  0  0  0  0
    0.7302   -1.1418    0.0035 C   0  0  0  0  0  0  0  0  0  0  0  0
    1.1723    2.2225   -0.0035 H   0  0  0  0  0  0  0  0  0  0  0  0
    2.4918    0.1028   -0.0003 H   0  0  0  0  0  0  0  0  0  0  0  0
   -1.2198   -2.0589    0.0084 H   0  0  0  0  0  0  0  0  0  0  0  0
   -3.4722    3.0930   -0.0226 H   0  0  0  0  0  0  0  0  0  0  0  0
   -3.2766    1.3457   -0.0071 H   0  0  0  0  0  0  0  0  0  0  0  0
    1.2747   -2.0801    0.0038 H   0  0  0  0  0  0  0  0  0  0  0  0
  1  2  2  0  0  0  0
  1  3  1  0  0  0  0
  1  4  1  0  0  0  0
  2  5  1  0  0  0  0
  2 10  1  0  0  0  0
  3  6  2  0  0  0  0
  4  7  1  0  0  0  0
  4  8  2  0  0  0  0
  5  9  2  0  0  0  0
  5 11  1  0  0  0  0
  6  9  1  0  0  0  0
  6 12  1  0  0  0  0
  7 13  1  0  0  0  0
  7 14  1  0  0  0  0
  9 15  1  0  0  0  0
M  END
>  <Mol_ID>
1610

>  <Formula>
C6H6N2O

>  <MolWeight>
122.12464

>  <Cat>
S4710

>  <Name>
Picolinamide

>  <Synonyms>
2-Pyridinecarboxamide, Picolinoylamide, 2-Carbamoylpyridine

>  <Target>
PARP

>  <Form>
free base

>  <CAS>
1452-77-3

>  <URL>
http://selleckchem.com/products/picolinamide.html

$$$$
