S4714 (-)-Menthol.cdx
 OpenBabel08302519503D

 31 31  0  0  0  0  0  0  0  0999 V2000
    1.1560    1.0768   -0.1338 C   0  0  1  0  0  0  0  0  0  0  0  0
    1.1107   -0.3909    0.3511 C   0  0  1  0  0  0  0  0  0  0  0  0
   -0.1732    1.7980    0.1812 C   0  0  0  0  0  0  0  0  0  0  0  0
    2.3653    1.9127    0.3971 C   0  0  0  0  0  0  0  0  0  0  0  0
   -0.1461   -1.1291   -0.1204 C   0  0  0  0  0  0  0  0  0  0  0  0
    2.2369   -1.1238   -0.1302 O   0  0  0  0  0  0  0  0  0  0  0  0
   -1.4012    1.0265   -0.2982 C   0  0  0  0  0  0  0  0  0  0  0  0
    2.4302    2.0247    1.9247 C   0  0  0  0  0  0  0  0  0  0  0  0
    3.7176    1.4212   -0.1281 C   0  0  0  0  0  0  0  0  0  0  0  0
   -1.4218   -0.3901    0.2813 C   0  0  1  0  0  0  0  0  0  0  0  0
   -2.6615   -1.1536   -0.1773 C   0  0  0  0  0  0  0  0  0  0  0  0
    1.2566    1.0552   -1.2291 H   0  0  0  0  0  0  0  0  0  0  0  0
    1.1395   -0.4288    1.4447 H   0  0  0  0  0  0  0  0  0  0  0  0
   -0.1728    2.7896   -0.2855 H   0  0  0  0  0  0  0  0  0  0  0  0
   -0.2751    1.9555    1.2602 H   0  0  0  0  0  0  0  0  0  0  0  0
    2.2407    2.9325    0.0070 H   0  0  0  0  0  0  0  0  0  0  0  0
   -0.1453   -2.1445    0.2989 H   0  0  0  0  0  0  0  0  0  0  0  0
   -0.1101   -1.2624   -1.2091 H   0  0  0  0  0  0  0  0  0  0  0  0
    2.2433   -1.0613   -1.1003 H   0  0  0  0  0  0  0  0  0  0  0  0
   -1.4039    0.9879   -1.3950 H   0  0  0  0  0  0  0  0  0  0  0  0
   -2.3057    1.5679    0.0032 H   0  0  0  0  0  0  0  0  0  0  0  0
    2.5416    1.0465    2.4015 H   0  0  0  0  0  0  0  0  0  0  0  0
    3.2884    2.6355    2.2276 H   0  0  0  0  0  0  0  0  0  0  0  0
    1.5382    2.5075    2.3335 H   0  0  0  0  0  0  0  0  0  0  0  0
    3.6940    1.2829   -1.2138 H   0  0  0  0  0  0  0  0  0  0  0  0
    4.5000    2.1564    0.0936 H   0  0  0  0  0  0  0  0  0  0  0  0
    4.0248    0.4818    0.3397 H   0  0  0  0  0  0  0  0  0  0  0  0
   -1.4572   -0.3220    1.3764 H   0  0  0  0  0  0  0  0  0  0  0  0
   -2.6755   -2.1610    0.2516 H   0  0  0  0  0  0  0  0  0  0  0  0
   -3.5736   -0.6403    0.1464 H   0  0  0  0  0  0  0  0  0  0  0  0
   -2.6929   -1.2479   -1.2681 H   0  0  0  0  0  0  0  0  0  0  0  0
  1  2  1  0  0  0  0
  1  3  1  0  0  0  0
  1 12  1  6  0  0  0
  1  4  1  0  0  0  0
  2  5  1  0  0  0  0
  2  6  1  0  0  0  0
  2 13  1  1  0  0  0
  3  7  1  0  0  0  0
  3 14  1  0  0  0  0
  3 15  1  0  0  0  0
  4  8  1  0  0  0  0
  4  9  1  0  0  0  0
  4 16  1  0  0  0  0
  5 10  1  0  0  0  0
  5 17  1  0  0  0  0
  5 18  1  0  0  0  0
  6 19  1  0  0  0  0
  7 10  1  0  0  0  0
  7 20  1  0  0  0  0
  7 21  1  0  0  0  0
  8 22  1  0  0  0  0
  8 23  1  0  0  0  0
  8 24  1  0  0  0  0
  9 25  1  0  0  0  0
  9 26  1  0  0  0  0
  9 27  1  0  0  0  0
 10 11  1  0  0  0  0
 10 28  1  1  0  0  0
 11 29  1  0  0  0  0
 11 30  1  0  0  0  0
 11 31  1  0  0  0  0
M  END
>  <Mol_ID>
1604

>  <Formula>
C10H20O

>  <MolWeight>
156.2652

>  <Cat>
S4714

>  <Name>
(-)-Menthol

>  <Synonyms>
L-Menthol, Levomenthol, Menthomenthol, Menthacamphor

>  <Target>
TRP Channel

>  <Form>
free base

>  <CAS>
2216-51-5

>  <URL>
http://selleckchem.com/products/-menthol.html

$$$$
