S4721 L-Glutamic acid monosodium salt.cdx
 OpenBabel08302521383D

 19 18  0  0  0  0  0  0  0  0999 V2000
    0.9149   -0.1838   -0.0931 C   0  0  1  0  0  0  0  0  0  0  0  0
    0.7561    0.5603    1.2367 C   0  0  0  0  0  0  0  0  0  0  0  0
    0.0483    0.4597   -1.1960 C   0  0  0  0  0  0  0  0  0  0  0  0
    2.3344   -0.1771   -0.5075 N   0  0  0  0  0  0  0  0  0  0  0  0
    1.5554   -0.0745    2.3779 C   0  0  0  0  0  0  0  0  0  0  0  0
   -1.2821    0.3963   -0.9612 O   0  0  0  0  0  0  0  0  0  0  0  0
    0.5018    0.9555   -2.2205 O   0  0  0  0  0  0  0  0  0  0  0  0
    1.3406    0.6789    3.6612 C   0  0  0  0  0  0  0  0  0  0  0  0
    0.9938    1.8414    3.7803 O   0  0  0  0  0  0  0  0  0  0  0  0
    1.5953   -0.0756    4.7463 O   0  0  0  0  0  0  0  0  0  0  0  0
    0.6003   -1.2287    0.0073 H   0  0  0  0  0  0  0  0  0  0  0  0
    1.0483    1.6117    1.1132 H   0  0  0  0  0  0  0  0  0  0  0  0
   -0.3024    0.5841    1.5263 H   0  0  0  0  0  0  0  0  0  0  0  0
    2.4011   -0.6481   -1.4148 H   0  0  0  0  0  0  0  0  0  0  0  0
    2.5891    0.7897   -0.7372 H   0  0  0  0  0  0  0  0  0  0  0  0
    1.2240   -1.1098    2.5184 H   0  0  0  0  0  0  0  0  0  0  0  0
    2.6294   -0.0724    2.1672 H   0  0  0  0  0  0  0  0  0  0  0  0
   -1.5332   -0.0439   -0.1269 H   0  0  0  0  0  0  0  0  0  0  0  0
    1.4479    0.5329    5.5011 H   0  0  0  0  0  0  0  0  0  0  0  0
  1  4  1  0  0  0  0
  1 11  1  1  0  0  0
  1  3  1  0  0  0  0
  1  2  1  0  0  0  0
  2  5  1  0  0  0  0
  2 12  1  0  0  0  0
  2 13  1  0  0  0  0
  3  6  1  0  0  0  0
  3  7  2  0  0  0  0
  4 14  1  0  0  0  0
  4 15  1  0  0  0  0
  5  8  1  0  0  0  0
  5 16  1  0  0  0  0
  5 17  1  0  0  0  0
  6 18  1  0  0  0  0
  8  9  2  0  0  0  0
  8 10  1  0  0  0  0
 10 19  1  0  0  0  0
M  END
>  <Mol_ID>
7773

>  <Formula>
C5H8NNaO4

>  <MolWeight>
169.11109

>  <Cat>
S4721

>  <Name>
L-Glutamic acid monosodium salt

>  <Synonyms>
Monosodium glutamate, MSG

>  <Target>
GluR

>  <Form>
sodium salt

>  <CAS>
142-47-2

>  <URL>
http://selleckchem.com/products/l-glutamic-acid-monosodium-salt.html

$$$$
