S4734 Retigabine 2HCl.cdx
 OpenBabel08302519503D

 40 41  0  0  0  0  0  0  0  0999 V2000
    1.1119   -0.0452   -0.0287 C   0  0  0  0  0  0  0  0  0  0  0  0
    0.2776   -1.1201    0.1287 N   0  0  0  0  0  0  0  0  0  0  0  0
    2.1845    0.1490    0.5295 O   0  0  0  0  0  0  0  0  0  0  0  0
    0.5979    0.8054   -0.9578 O   0  0  0  0  0  0  0  0  0  0  0  0
    0.5462   -2.2808    0.9008 C   0  0  0  0  0  0  0  0  0  0  0  0
    1.4305   -2.3268    1.9970 C   0  0  0  0  0  0  0  0  0  0  0  0
    1.7255   -3.5706    2.5801 C   0  0  0  0  0  0  0  0  0  0  0  0
    1.2049   -4.7778    2.0987 C   0  0  0  0  0  0  0  0  0  0  0  0
    0.2788   -4.7045    1.0595 C   0  0  0  0  0  0  0  0  0  0  0  0
   -0.0652   -3.4718    0.4798 C   0  0  0  0  0  0  0  0  0  0  0  0
    1.7096   -5.9624    2.6174 N   0  0  0  0  0  0  0  0  0  0  0  0
    0.9732   -7.2145    2.6287 C   0  0  0  0  0  0  0  0  0  0  0  0
    1.5766   -8.2713    1.7249 C   0  0  0  0  0  0  0  0  0  0  0  0
    2.7141   -8.0524    0.9285 C   0  0  0  0  0  0  0  0  0  0  0  0
    3.2233   -9.0697    0.1162 C   0  0  0  0  0  0  0  0  0  0  0  0
    2.5988  -10.3097    0.0948 C   0  0  0  0  0  0  0  0  0  0  0  0
    1.4779  -10.5559    0.8764 C   0  0  0  0  0  0  0  0  0  0  0  0
    0.9700   -9.5411    1.6897 C   0  0  0  0  0  0  0  0  0  0  0  0
    3.0824  -11.2820   -0.6897 F   0  0  0  0  0  0  0  0  0  0  0  0
    1.8192   -1.1749    2.7216 N   0  0  0  0  0  0  0  0  0  0  0  0
    1.4398    1.9310   -1.2689 C   0  0  0  0  0  0  0  0  0  0  0  0
    1.3344    3.0097   -0.2035 C   0  0  0  0  0  0  0  0  0  0  0  0
   -0.4572   -1.1668   -0.5641 H   0  0  0  0  0  0  0  0  0  0  0  0
    2.3944   -3.5902    3.4363 H   0  0  0  0  0  0  0  0  0  0  0  0
   -0.1626   -5.6067    0.6446 H   0  0  0  0  0  0  0  0  0  0  0  0
   -0.7731   -3.4695   -0.3443 H   0  0  0  0  0  0  0  0  0  0  0  0
    2.3221   -5.8496    3.4181 H   0  0  0  0  0  0  0  0  0  0  0  0
    1.0113   -7.6019    3.6553 H   0  0  0  0  0  0  0  0  0  0  0  0
   -0.0858   -7.0768    2.3848 H   0  0  0  0  0  0  0  0  0  0  0  0
    3.2132   -7.0853    0.9324 H   0  0  0  0  0  0  0  0  0  0  0  0
    4.1002   -8.8988   -0.5003 H   0  0  0  0  0  0  0  0  0  0  0  0
    1.0064  -11.5328    0.8472 H   0  0  0  0  0  0  0  0  0  0  0  0
    0.0929   -9.7448    2.3012 H   0  0  0  0  0  0  0  0  0  0  0  0
    2.6964   -1.3049    3.2125 H   0  0  0  0  0  0  0  0  0  0  0  0
    1.9064   -0.3664    2.1022 H   0  0  0  0  0  0  0  0  0  0  0  0
    2.4804    1.6121   -1.4112 H   0  0  0  0  0  0  0  0  0  0  0  0
    1.0979    2.3294   -2.2291 H   0  0  0  0  0  0  0  0  0  0  0  0
    1.7950    2.6866    0.7358 H   0  0  0  0  0  0  0  0  0  0  0  0
    1.8396    3.9239   -0.5279 H   0  0  0  0  0  0  0  0  0  0  0  0
    0.2870    3.2368    0.0168 H   0  0  0  0  0  0  0  0  0  0  0  0
  1  2  1  0  0  0  0
  1  3  2  0  0  0  0
  1  4  1  0  0  0  0
  2  5  1  0  0  0  0
  2 23  1  0  0  0  0
  4 21  1  0  0  0  0
  5  6  2  0  0  0  0
  5 10  1  0  0  0  0
  6  7  1  0  0  0  0
  6 20  1  0  0  0  0
  7  8  2  0  0  0  0
  7 24  1  0  0  0  0
  8  9  1  0  0  0  0
  8 11  1  0  0  0  0
  9 10  2  0  0  0  0
  9 25  1  0  0  0  0
 10 26  1  0  0  0  0
 11 12  1  0  0  0  0
 11 27  1  0  0  0  0
 12 13  1  0  0  0  0
 12 28  1  0  0  0  0
 12 29  1  0  0  0  0
 13 14  2  0  0  0  0
 13 18  1  0  0  0  0
 14 15  1  0  0  0  0
 14 30  1  0  0  0  0
 15 16  2  0  0  0  0
 15 31  1  0  0  0  0
 16 17  1  0  0  0  0
 16 19  1  0  0  0  0
 17 18  2  0  0  0  0
 17 32  1  0  0  0  0
 18 33  1  0  0  0  0
 20 34  1  0  0  0  0
 20 35  1  0  0  0  0
 21 22  1  0  0  0  0
 21 36  1  0  0  0  0
 21 37  1  0  0  0  0
 22 38  1  0  0  0  0
 22 39  1  0  0  0  0
 22 40  1  0  0  0  0
M  END
>  <Mol_ID>
1617

>  <Formula>
C16H20Cl2FN3O2

>  <MolWeight>
376.2533032

>  <Cat>
S4734

>  <Name>
Retigabine 2HCl

>  <Synonyms>
N-(2-amino-4-[fluorobenzylamino]-phenyl) carbamic acid (2HCl), D-23129 2HCl

>  <Target>
Potassium Channel

>  <Form>
dihydrochloride

>  <CAS>
150812-13-8

>  <URL>
http://selleckchem.com/products/retigabine-2hcl.html

$$$$
