S4747 Jervine.cdx
 OpenBabel08302519523D

 70 75  0  0  0  0  0  0  0  0999 V2000
    1.6385    4.5155    1.1416 C   0  0  2  0  0  0  0  0  0  0  0  0
    0.2400    5.1846    1.1541 C   0  0  0  0  0  0  0  0  0  0  0  0
    2.6322    5.5105    1.3934 O   0  0  0  0  0  0  0  0  0  0  0  0
    1.8820    3.9546   -0.3496 C   0  0  1  0  0  0  0  0  0  0  0  0
    1.8145    3.4868    2.3022 C   0  0  0  0  0  0  0  0  0  0  0  0
   -0.7439    4.2849    1.1629 C   0  0  0  0  0  0  0  0  0  0  0  0
    0.0660    6.6582    0.9781 C   0  0  0  0  0  0  0  0  0  0  0  0
    3.5723    5.4156    0.3423 C   0  0  1  0  0  0  0  0  0  0  0  0
    2.7999    5.0385   -0.9098 C   0  0  1  0  0  0  0  0  0  0  0  0
    2.4130    2.5296   -0.5465 C   0  0  0  0  0  0  0  0  0  0  0  0
    0.4853    2.9240    2.8102 C   0  0  0  0  0  0  0  0  0  0  0  0
   -0.4305    2.8636    1.6109 C   0  0  1  0  0  0  0  0  0  0  0  0
   -2.1691    4.2508    0.6841 C   0  0  0  0  0  0  0  0  0  0  0  0
    4.2317    6.7432    0.1332 C   0  0  0  0  0  0  0  0  0  0  0  0
    3.6996    4.7934   -2.0393 N   0  0  0  0  0  0  0  0  0  0  0  0
   -1.7953    2.2447    1.7760 C   0  0  1  0  0  0  0  0  0  0  0  0
   -2.4327    2.7830    0.4637 C   0  0  1  0  0  0  0  0  0  0  0  0
   -2.8671    5.2021    0.3965 O   0  0  0  0  0  0  0  0  0  0  0  0
    5.1776    6.6376   -1.0586 C   0  0  1  0  0  0  0  0  0  0  0  0
    4.4779    6.0274   -2.3063 C   0  0  0  0  0  0  0  0  0  0  0  0
   -1.7397    0.7215    1.9120 C   0  0  0  0  0  0  0  0  0  0  0  0
   -3.7065    2.0565    0.1047 C   0  0  2  0  0  0  0  0  0  0  0  0
    5.7614    8.0264   -1.3164 C   0  0  0  0  0  0  0  0  0  0  0  0
   -2.3118    0.0196    0.7192 C   0  0  0  0  0  0  0  0  0  0  0  0
   -3.1581    0.6239   -0.1417 C   0  0  0  0  0  0  0  0  0  0  0  0
   -4.3302    2.6064   -1.1970 C   0  0  0  0  0  0  0  0  0  0  0  0
   -4.7202    2.1421    1.2585 C   0  0  0  0  0  0  0  0  0  0  0  0
   -3.2817    0.0695   -1.5418 C   0  0  0  0  0  0  0  0  0  0  0  0
   -5.3153    1.6021   -1.8165 C   0  0  0  0  0  0  0  0  0  0  0  0
   -4.6963    0.2191   -2.0792 C   0  0  2  0  0  0  0  0  0  0  0  0
   -5.5225   -0.7969   -1.5142 O   0  0  0  0  0  0  0  0  0  0  0  0
    0.9422    3.9754   -0.9224 H   0  0  0  0  0  0  0  0  0  0  0  0
    2.3509    3.9404    3.1456 H   0  0  0  0  0  0  0  0  0  0  0  0
    2.4543    2.6572    1.9846 H   0  0  0  0  0  0  0  0  0  0  0  0
   -0.2288    7.0906    1.9415 H   0  0  0  0  0  0  0  0  0  0  0  0
   -0.7048    6.8952    0.2438 H   0  0  0  0  0  0  0  0  0  0  0  0
    0.9844    7.1627    0.6741 H   0  0  0  0  0  0  0  0  0  0  0  0
    4.3096    4.6434    0.6053 H   0  0  0  0  0  0  0  0  0  0  0  0
    2.1278    5.8584   -1.2056 H   0  0  0  0  0  0  0  0  0  0  0  0
    3.4655    2.4275   -0.2756 H   0  0  0  0  0  0  0  0  0  0  0  0
    1.8451    1.7803    0.0099 H   0  0  0  0  0  0  0  0  0  0  0  0
    2.3097    2.2442   -1.6027 H   0  0  0  0  0  0  0  0  0  0  0  0
    0.0803    3.5953    3.5824 H   0  0  0  0  0  0  0  0  0  0  0  0
    0.6314    1.9490    3.2841 H   0  0  0  0  0  0  0  0  0  0  0  0
    0.0625    2.3245    0.8047 H   0  0  0  0  0  0  0  0  0  0  0  0
    4.7535    7.0497    1.0458 H   0  0  0  0  0  0  0  0  0  0  0  0
    3.4598    7.5046   -0.0471 H   0  0  0  0  0  0  0  0  0  0  0  0
    4.3474    4.0380   -1.8148 H   0  0  0  0  0  0  0  0  0  0  0  0
   -2.2996    2.6645    2.6604 H   0  0  0  0  0  0  0  0  0  0  0  0
   -1.7595    2.5809   -0.3969 H   0  0  0  0  0  0  0  0  0  0  0  0
    5.9953    5.9600   -0.7778 H   0  0  0  0  0  0  0  0  0  0  0  0
    5.2388    5.7935   -3.0609 H   0  0  0  0  0  0  0  0  0  0  0  0
    3.8079    6.7666   -2.7599 H   0  0  0  0  0  0  0  0  0  0  0  0
   -2.2668    0.3996    2.8163 H   0  0  0  0  0  0  0  0  0  0  0  0
   -0.6989    0.3960    2.0375 H   0  0  0  0  0  0  0  0  0  0  0  0
    5.3198    8.7821   -0.6527 H   0  0  0  0  0  0  0  0  0  0  0  0
    5.6056    8.3585   -2.3440 H   0  0  0  0  0  0  0  0  0  0  0  0
    6.8370    8.0227   -1.1105 H   0  0  0  0  0  0  0  0  0  0  0  0
   -1.8645   -0.9406    0.4788 H   0  0  0  0  0  0  0  0  0  0  0  0
   -4.8599    3.5460   -1.0014 H   0  0  0  0  0  0  0  0  0  0  0  0
   -3.5587    2.8359   -1.9367 H   0  0  0  0  0  0  0  0  0  0  0  0
   -5.7006    1.7478    0.9803 H   0  0  0  0  0  0  0  0  0  0  0  0
   -4.4008    1.5864    2.1455 H   0  0  0  0  0  0  0  0  0  0  0  0
   -4.8578    3.1872    1.5639 H   0  0  0  0  0  0  0  0  0  0  0  0
   -2.5862    0.6280   -2.1836 H   0  0  0  0  0  0  0  0  0  0  0  0
   -2.9658   -0.9793   -1.5743 H   0  0  0  0  0  0  0  0  0  0  0  0
   -5.6815    2.0060   -2.7682 H   0  0  0  0  0  0  0  0  0  0  0  0
   -6.1998    1.4928   -1.1788 H   0  0  0  0  0  0  0  0  0  0  0  0
   -4.6751    0.0325   -3.1618 H   0  0  0  0  0  0  0  0  0  0  0  0
   -5.3409   -0.8193   -0.5576 H   0  0  0  0  0  0  0  0  0  0  0  0
  1  2  1  1  0  0  0
  1  3  1  0  0  0  0
  1  4  1  0  0  0  0
  1  5  1  0  0  0  0
  2  6  2  0  0  0  0
  2  7  1  0  0  0  0
  3  8  1  0  0  0  0
  4  9  1  0  0  0  0
  4 32  1  6  0  0  0
  4 10  1  0  0  0  0
  5 11  1  0  0  0  0
  5 33  1  0  0  0  0
  5 34  1  0  0  0  0
  6 12  1  0  0  0  0
  6 13  1  0  0  0  0
  7 35  1  0  0  0  0
  7 36  1  0  0  0  0
  7 37  1  0  0  0  0
  8 14  1  0  0  0  0
  8  9  1  0  0  0  0
  8 38  1  1  0  0  0
  9 15  1  0  0  0  0
  9 39  1  6  0  0  0
 10 40  1  0  0  0  0
 10 41  1  0  0  0  0
 10 42  1  0  0  0  0
 11 43  1  0  0  0  0
 11 44  1  0  0  0  0
 12 11  1  0  0  0  0
 12 16  1  0  0  0  0
 12 45  1  6  0  0  0
 13 18  2  0  0  0  0
 14 19  1  0  0  0  0
 14 46  1  0  0  0  0
 14 47  1  0  0  0  0
 15 20  1  0  0  0  0
 15 48  1  0  0  0  0
 16 21  1  0  0  0  0
 16 17  1  0  0  0  0
 16 49  1  1  0  0  0
 17 13  1  0  0  0  0
 17 22  1  0  0  0  0
 17 50  1  6  0  0  0
 19 20  1  0  0  0  0
 19 51  1  1  0  0  0
 19 23  1  0  0  0  0
 20 52  1  0  0  0  0
 20 53  1  0  0  0  0
 21 24  1  0  0  0  0
 21 54  1  0  0  0  0
 21 55  1  0  0  0  0
 22 25  1  0  0  0  0
 22 26  1  0  0  0  0
 22 27  1  1  0  0  0
 23 56  1  0  0  0  0
 23 57  1  0  0  0  0
 23 58  1  0  0  0  0
 24 25  2  0  0  0  0
 24 59  1  0  0  0  0
 25 28  1  0  0  0  0
 26 29  1  0  0  0  0
 26 60  1  0  0  0  0
 26 61  1  0  0  0  0
 27 62  1  0  0  0  0
 27 63  1  0  0  0  0
 27 64  1  0  0  0  0
 28 30  1  0  0  0  0
 28 65  1  0  0  0  0
 28 66  1  0  0  0  0
 29 30  1  0  0  0  0
 29 67  1  0  0  0  0
 29 68  1  0  0  0  0
 30 31  1  0  0  0  0
 30 69  1  6  0  0  0
 31 70  1  0  0  0  0
M  END
>  <Mol_ID>
1620

>  <Formula>
C27H39NO3

>  <MolWeight>
425.60346

>  <Cat>
S4747

>  <Name>
Jervine

>  <Synonyms>
11-Ketocyclopamine

>  <Target>
Hedgehog/Smoothened

>  <Form>
free base

>  <CAS>
469-59-0

>  <URL>
http://selleckchem.com/products/jervine.html

$$$$
