S4743 Wogonin.cdx
 OpenBabel08302519503D

 33 35  0  0  0  0  0  0  0  0999 V2000
   -0.3754    0.2827   -0.0056 C   0  0  0  0  0  0  0  0  0  0  0  0
    0.0944   -1.0393    0.0103 C   0  0  0  0  0  0  0  0  0  0  0  0
   -1.8388    0.5155   -0.0196 C   0  0  0  0  0  0  0  0  0  0  0  0
    0.5373    1.3428   -0.0134 C   0  0  0  0  0  0  0  0  0  0  0  0
    1.4842   -1.3090    0.0230 C   0  0  0  0  0  0  0  0  0  0  0  0
   -0.7679   -2.1241    0.0082 O   0  0  0  0  0  0  0  0  0  0  0  0
   -2.6899   -0.6785   -0.0882 C   0  0  0  0  0  0  0  0  0  0  0  0
   -2.3714    1.6121    0.0191 O   0  0  0  0  0  0  0  0  0  0  0  0
    1.9070    1.0919   -0.0111 C   0  0  0  0  0  0  0  0  0  0  0  0
    0.1095    2.6389   -0.0329 O   0  0  0  0  0  0  0  0  0  0  0  0
    2.3776   -0.2240    0.0037 C   0  0  0  0  0  0  0  0  0  0  0  0
    1.8124   -2.6413    0.0486 O   0  0  0  0  0  0  0  0  0  0  0  0
   -2.1297   -1.8855   -0.0765 C   0  0  0  0  0  0  0  0  0  0  0  0
    3.7340   -0.4076   -0.0063 O   0  0  0  0  0  0  0  0  0  0  0  0
    3.1852   -3.0088    0.0611 C   0  0  0  0  0  0  0  0  0  0  0  0
   -2.9745   -3.0867   -0.1164 C   0  0  0  0  0  0  0  0  0  0  0  0
   -3.3786   -3.6370   -1.3391 C   0  0  0  0  0  0  0  0  0  0  0  0
   -3.3599   -3.7193    1.0746 C   0  0  0  0  0  0  0  0  0  0  0  0
   -4.0947   -4.8375   -1.3700 C   0  0  0  0  0  0  0  0  0  0  0  0
   -4.0699   -4.9215    1.0418 C   0  0  0  0  0  0  0  0  0  0  0  0
   -4.4279   -5.4858   -0.1811 C   0  0  0  0  0  0  0  0  0  0  0  0
   -3.7602   -0.5116   -0.1289 H   0  0  0  0  0  0  0  0  0  0  0  0
    2.6063    1.9219   -0.0230 H   0  0  0  0  0  0  0  0  0  0  0  0
    0.8549    3.2574    0.0050 H   0  0  0  0  0  0  0  0  0  0  0  0
    4.1883    0.4486   -0.0656 H   0  0  0  0  0  0  0  0  0  0  0  0
    3.6879   -2.6955   -0.8599 H   0  0  0  0  0  0  0  0  0  0  0  0
    3.6924   -2.6330    0.9560 H   0  0  0  0  0  0  0  0  0  0  0  0
    3.2393   -4.1012    0.0996 H   0  0  0  0  0  0  0  0  0  0  0  0
   -3.1053   -3.1569   -2.2769 H   0  0  0  0  0  0  0  0  0  0  0  0
   -3.0794   -3.2978    2.0371 H   0  0  0  0  0  0  0  0  0  0  0  0
   -4.3724   -5.2799   -2.3234 H   0  0  0  0  0  0  0  0  0  0  0  0
   -4.3260   -5.4264    1.9702 H   0  0  0  0  0  0  0  0  0  0  0  0
   -4.9614   -6.4329   -0.2069 H   0  0  0  0  0  0  0  0  0  0  0  0
  1  2  2  0  0  0  0
  1  3  1  0  0  0  0
  1  4  1  0  0  0  0
  2  5  1  0  0  0  0
  2  6  1  0  0  0  0
  3  7  1  0  0  0  0
  3  8  2  0  0  0  0
  4  9  2  0  0  0  0
  4 10  1  0  0  0  0
  5 11  2  0  0  0  0
  5 12  1  0  0  0  0
  6 13  1  0  0  0  0
  7 13  2  0  0  0  0
  7 22  1  0  0  0  0
  9 11  1  0  0  0  0
  9 23  1  0  0  0  0
 10 24  1  0  0  0  0
 11 14  1  0  0  0  0
 12 15  1  0  0  0  0
 13 16  1  0  0  0  0
 14 25  1  0  0  0  0
 15 26  1  0  0  0  0
 15 27  1  0  0  0  0
 15 28  1  0  0  0  0
 16 17  2  0  0  0  0
 16 18  1  0  0  0  0
 17 19  1  0  0  0  0
 17 29  1  0  0  0  0
 18 20  2  0  0  0  0
 18 30  1  0  0  0  0
 19 21  2  0  0  0  0
 19 31  1  0  0  0  0
 20 21  1  0  0  0  0
 20 32  1  0  0  0  0
 21 33  1  0  0  0  0
M  END
>  <Mol_ID>
1627

>  <Formula>
C16H12O5

>  <MolWeight>
284.26348

>  <Cat>
S4743

>  <Name>
Wogonin

>  <Synonyms>
Vogonin

>  <Target>
CDK,Transferase

>  <Form>
free base

>  <CAS>
632-85-9

>  <URL>
http://selleckchem.com/products/wogonin.html

$$$$
