S4766 Gibberellic acid.cdx
 OpenBabel08302519513D

 47 51  0  0  0  0  0  0  0  0999 V2000
    1.0954    2.0490   -0.5918 C   0  0  2  0  0  0  0  0  0  0  0  0
   -0.0760    2.7687   -0.0140 C   0  0  1  0  0  0  0  0  0  0  0  0
    0.9993    0.6131   -0.0894 C   0  0  3  0  0  0  0  0  0  0  0  0
    2.2171    2.7249   -0.0799 O   0  0  0  0  0  0  0  0  0  0  0  0
    1.2985    1.8828   -2.0895 C   0  0  0  0  0  0  0  0  0  0  0  0
   -1.1604    1.7678   -0.0482 C   0  0  3  0  0  0  0  0  0  0  0  0
   -0.2397    3.0905    1.6315 C   0  0  0  0  0  0  0  0  0  0  0  0
   -0.2817    0.5984    0.7809 C   0  0  3  0  0  0  0  0  0  0  0  0
    2.5250    0.4048    0.0105 C   0  0  3  0  0  0  0  0  0  0  0  0
    3.1460    1.7883    0.1900 C   0  0  0  0  0  0  0  0  0  0  0  0
    2.1534    0.9131   -2.5053 C   0  0  0  0  0  0  0  0  0  0  0  0
   -2.1494    2.9773    0.2012 C   0  0  0  0  0  0  0  0  0  0  0  0
   -2.0989    1.1034   -1.0128 C   0  0  0  0  0  0  0  0  0  0  0  0
   -1.8529    2.6283    2.2229 C   0  0  0  0  0  0  0  0  0  0  0  0
   -0.9635   -0.7566    0.9244 C   0  0  0  0  0  0  0  0  0  0  0  0
    2.8988    0.0113   -1.4820 C   0  0  3  0  0  0  0  0  0  0  0  0
    4.2898    2.0671    0.5104 O   0  0  0  0  0  0  0  0  0  0  0  0
   -3.1840    2.3948    1.0591 C   0  0  3  0  0  0  0  0  0  0  0  0
   -3.3870    1.7321   -0.4399 C   0  0  0  0  0  0  0  0  0  0  0  0
   -0.3304   -1.8092    0.3739 O   0  0  0  0  0  0  0  0  0  0  0  0
   -2.0174   -0.9298    1.5222 O   0  0  0  0  0  0  0  0  0  0  0  0
    4.2819    0.0322   -1.7323 O   0  0  0  0  0  0  0  0  0  0  0  0
   -3.6618    1.2185    1.6796 O   0  0  0  0  0  0  0  0  0  0  0  0
   -4.3245    2.1698   -1.3166 C   0  0  0  0  0  0  0  0  0  0  0  0
    3.0373   -0.4301    1.1686 C   0  0  0  0  0  0  0  0  0  0  0  0
   -0.1886    3.7156   -0.5611 H   0  0  0  0  0  0  0  0  0  0  0  0
    0.6597   -0.0864   -0.8710 H   0  0  0  0  0  0  0  0  0  0  0  0
    0.7219    2.4819   -2.7870 H   0  0  0  0  0  0  0  0  0  0  0  0
   -0.1160    4.1653    1.8079 H   0  0  0  0  0  0  0  0  0  0  0  0
    0.5205    2.6038    2.2551 H   0  0  0  0  0  0  0  0  0  0  0  0
   -0.0014    0.8110    1.8120 H   0  0  0  0  0  0  0  0  0  0  0  0
    2.2744    0.7066   -3.5641 H   0  0  0  0  0  0  0  0  0  0  0  0
   -1.8843    3.9742    0.6243 H   0  0  0  0  0  0  0  0  0  0  0  0
   -2.3917    3.5024   -0.7620 H   0  0  0  0  0  0  0  0  0  0  0  0
   -2.2025    0.0198   -0.9375 H   0  0  0  0  0  0  0  0  0  0  0  0
   -1.8885    1.3629   -2.0534 H   0  0  0  0  0  0  0  0  0  0  0  0
   -2.1758    3.4480    2.8824 H   0  0  0  0  0  0  0  0  0  0  0  0
   -1.7441    1.7425    2.8638 H   0  0  0  0  0  0  0  0  0  0  0  0
    2.5633   -1.0203   -1.6538 H   0  0  0  0  0  0  0  0  0  0  0  0
   -0.9225   -2.5730    0.5789 H   0  0  0  0  0  0  0  0  0  0  0  0
    4.3997    0.1130   -2.7007 H   0  0  0  0  0  0  0  0  0  0  0  0
   -3.0267    0.4808    1.6218 H   0  0  0  0  0  0  0  0  0  0  0  0
   -5.0611    2.9168   -1.0361 H   0  0  0  0  0  0  0  0  0  0  0  0
   -4.2255    1.9593   -2.3814 H   0  0  0  0  0  0  0  0  0  0  0  0
    3.4888    0.2021    1.9499 H   0  0  0  0  0  0  0  0  0  0  0  0
    3.8186   -1.1255    0.8522 H   0  0  0  0  0  0  0  0  0  0  0  0
    2.2375   -0.9820    1.6650 H   0  0  0  0  0  0  0  0  0  0  0  0
  1  2  1  0  0  0  0
  1  3  1  0  0  0  0
  1  4  1  1  0  0  0
  1  5  1  0  0  0  0
  2  6  1  0  0  0  0
  2  7  1  0  0  0  0
  2 26  1  6  0  0  0
  3  8  1  0  0  0  0
  3  9  1  0  0  0  0
  3 27  1  0  0  0  0
  4 10  1  0  0  0  0
  5 11  2  0  0  0  0
  5 28  1  0  0  0  0
  6 12  1  0  0  0  0
  6 13  1  0  0  0  0
  6  8  1  0  0  0  0
  7 14  1  0  0  0  0
  7 29  1  0  0  0  0
  7 30  1  0  0  0  0
  8 15  1  0  0  0  0
  8 31  1  0  0  0  0
  9 16  1  0  0  0  0
  9 10  1  0  0  0  0
  9 25  1  0  0  0  0
 10 17  2  0  0  0  0
 11 16  1  0  0  0  0
 11 32  1  0  0  0  0
 12 18  1  0  0  0  0
 12 33  1  0  0  0  0
 12 34  1  0  0  0  0
 13 19  1  0  0  0  0
 13 35  1  0  0  0  0
 13 36  1  0  0  0  0
 14 18  1  0  0  0  0
 14 37  1  0  0  0  0
 14 38  1  0  0  0  0
 15 20  1  0  0  0  0
 15 21  2  0  0  0  0
 16 22  1  0  0  0  0
 16 39  1  0  0  0  0
 18 23  1  0  0  0  0
 18 19  1  0  0  0  0
 19 24  2  0  0  0  0
 20 40  1  0  0  0  0
 22 41  1  0  0  0  0
 23 42  1  0  0  0  0
 24 43  1  0  0  0  0
 24 44  1  0  0  0  0
 25 45  1  0  0  0  0
 25 46  1  0  0  0  0
 25 47  1  0  0  0  0
M  END
>  <Mol_ID>
1822

>  <Formula>
C19H22O6

>  <MolWeight>
346.37438

>  <Cat>
S4766

>  <Name>
Gibberellic acid

>  <Synonyms>
Gibberellin, Gibberellin A3, GA3

>  <Target>
Others

>  <Form>
free base

>  <CAS>
77-06-5

>  <URL>
http://selleckchem.com/products/gibberellic-acid.html

$$$$
