S4770 Creatine phosphate disodium salt.cdx
 OpenBabel08302521383D

 21 20  0  0  0  0  0  0  0  0999 V2000
    1.2431   -0.0722    0.0596 N   0  0  0  0  0  0  0  0  0  0  0  0
    0.4048    0.8950   -0.6772 C   0  0  0  0  0  0  0  0  0  0  0  0
   -0.5947    0.1122   -1.5358 C   0  0  0  0  0  0  0  0  0  0  0  0
    0.0314   -0.8633   -2.2593 O   0  0  0  0  0  0  0  0  0  0  0  0
   -1.8115    0.2625   -1.5670 O   0  0  0  0  0  0  0  0  0  0  0  0
    2.6166   -0.0516    0.0402 C   0  0  0  0  0  0  0  0  0  0  0  0
    0.5229   -0.9302    0.9916 C   0  0  0  0  0  0  0  0  0  0  0  0
    3.3033   -1.1438    0.0196 N   0  0  0  0  0  0  0  0  0  0  0  0
    3.3011    1.1360   -0.0793 N   0  0  0  0  0  0  0  0  0  0  0  0
    2.8243    2.6374    0.7495 P   0  0  0  0  0  0  0  0  0  0  0  0
    4.3471    2.6554    0.9834 O   0  5  0  0  0  0  0  0  0  0  0  0
    2.2546    3.0063   -0.6321 O   0  5  0  0  0  0  0  0  0  0  0  0
    2.4096    3.9434    1.4705 O   0  0  0  0  0  0  0  0  0  0  0  0
   -0.1381    1.5571    0.0059 H   0  0  0  0  0  0  0  0  0  0  0  0
    0.9590    1.4655   -1.4207 H   0  0  0  0  0  0  0  0  0  0  0  0
    0.9954   -0.7870   -2.0499 H   0  0  0  0  0  0  0  0  0  0  0  0
   -0.1860   -0.3522    1.5939 H   0  0  0  0  0  0  0  0  0  0  0  0
   -0.0384   -1.6962    0.4450 H   0  0  0  0  0  0  0  0  0  0  0  0
    1.1932   -1.4509    1.6844 H   0  0  0  0  0  0  0  0  0  0  0  0
    2.6282   -1.9021    0.0304 H   0  0  0  0  0  0  0  0  0  0  0  0
    4.3025    1.2102    0.0877 H   0  0  0  0  0  0  0  0  0  0  0  0
  1  7  1  0  0  0  0
  1  2  1  0  0  0  0
  1  6  1  0  0  0  0
  2  3  1  0  0  0  0
  2 14  1  0  0  0  0
  2 15  1  0  0  0  0
  3  4  1  0  0  0  0
  3  5  2  0  0  0  0
  4 16  1  0  0  0  0
  6  8  2  0  0  0  0
  6  9  1  0  0  0  0
  7 17  1  0  0  0  0
  7 18  1  0  0  0  0
  7 19  1  0  0  0  0
  8 20  1  0  0  0  0
  9 10  1  0  0  0  0
  9 21  1  0  0  0  0
 10 11  1  0  0  0  0
 10 12  1  0  0  0  0
 10 13  2  0  0  0  0
M  CHG  2  11  -1  12  -1
M  END
>  <Mol_ID>
7807

>  <Formula>
C4H8N3Na2O5P

>  <MolWeight>
255.076721

>  <Cat>
S4770

>  <Name>
Creatine phosphate disodium salt

>  <Synonyms>
Phosphocreatine disodium salt

>  <Target>
Others

>  <Form>
disodium salt

>  <CAS>
922-32-7

>  <URL>
http://selleckchem.com/products/creatine-phosphate-disodium-salt.html

$$$$
