S4772 alpha-Asarone.cdx
 OpenBabel08302519523D

 31 31  0  0  0  0  0  0  0  0999 V2000
    1.4331   -0.1799    0.1093 C   0  0  0  0  0  0  0  0  0  0  0  0
    0.5914   -1.3037    0.0692 C   0  0  0  0  0  0  0  0  0  0  0  0
    0.8230    1.0890    0.0776 C   0  0  0  0  0  0  0  0  0  0  0  0
    2.8855   -0.2638    0.3287 C   0  0  0  0  0  0  0  0  0  0  0  0
   -0.8046   -1.1384   -0.0163 C   0  0  0  0  0  0  0  0  0  0  0  0
    0.9658   -2.6159    0.2157 O   0  0  0  0  0  0  0  0  0  0  0  0
   -0.5694    1.2539    0.0245 C   0  0  0  0  0  0  0  0  0  0  0  0
    3.8026    0.5677   -0.1995 C   0  0  0  0  0  0  0  0  0  0  0  0
   -1.4006    0.1275   -0.0528 C   0  0  0  0  0  0  0  0  0  0  0  0
    2.0675   -3.0655   -0.5651 C   0  0  0  0  0  0  0  0  0  0  0  0
   -0.9641    2.5691    0.0293 O   0  0  0  0  0  0  0  0  0  0  0  0
    5.2713    0.4358    0.0566 C   0  0  0  0  0  0  0  0  0  0  0  0
   -2.7485    0.3339   -0.1690 O   0  0  0  0  0  0  0  0  0  0  0  0
   -2.1967    2.8611    0.6780 C   0  0  0  0  0  0  0  0  0  0  0  0
   -3.5958   -0.8028   -0.2700 C   0  0  0  0  0  0  0  0  0  0  0  0
    1.4348    1.9882    0.1495 H   0  0  0  0  0  0  0  0  0  0  0  0
    3.2068   -1.0605    0.9906 H   0  0  0  0  0  0  0  0  0  0  0  0
   -1.4072   -2.0419   -0.0449 H   0  0  0  0  0  0  0  0  0  0  0  0
    3.5070    1.3844   -0.8539 H   0  0  0  0  0  0  0  0  0  0  0  0
    2.1482   -2.5499   -1.5275 H   0  0  0  0  0  0  0  0  0  0  0  0
    2.9959   -2.9859    0.0056 H   0  0  0  0  0  0  0  0  0  0  0  0
    1.9153   -4.1313   -0.7657 H   0  0  0  0  0  0  0  0  0  0  0  0
    5.8124    0.4166   -0.8938 H   0  0  0  0  0  0  0  0  0  0  0  0
    5.6294    1.2880    0.6406 H   0  0  0  0  0  0  0  0  0  0  0  0
    5.5130   -0.4823    0.6003 H   0  0  0  0  0  0  0  0  0  0  0  0
   -3.0377    2.7210   -0.0058 H   0  0  0  0  0  0  0  0  0  0  0  0
   -2.3287    2.2837    1.6017 H   0  0  0  0  0  0  0  0  0  0  0  0
   -2.1832    3.9202    0.9568 H   0  0  0  0  0  0  0  0  0  0  0  0
   -3.3629   -1.3914   -1.1623 H   0  0  0  0  0  0  0  0  0  0  0  0
   -3.5443   -1.4148    0.6367 H   0  0  0  0  0  0  0  0  0  0  0  0
   -4.6253   -0.4440   -0.3682 H   0  0  0  0  0  0  0  0  0  0  0  0
  1  2  2  0  0  0  0
  1  3  1  0  0  0  0
  1  4  1  0  0  0  0
  2  5  1  0  0  0  0
  2  6  1  0  0  0  0
  3  7  2  0  0  0  0
  3 16  1  0  0  0  0
  4  8  2  0  0  0  0
  4 17  1  0  0  0  0
  5  9  2  0  0  0  0
  5 18  1  0  0  0  0
  6 10  1  0  0  0  0
  7 11  1  0  0  0  0
  7  9  1  0  0  0  0
  8 12  1  0  0  0  0
  8 19  1  0  0  0  0
  9 13  1  0  0  0  0
 10 20  1  0  0  0  0
 10 21  1  0  0  0  0
 10 22  1  0  0  0  0
 11 14  1  0  0  0  0
 12 23  1  0  0  0  0
 12 24  1  0  0  0  0
 12 25  1  0  0  0  0
 13 15  1  0  0  0  0
 14 26  1  0  0  0  0
 14 27  1  0  0  0  0
 14 28  1  0  0  0  0
 15 29  1  0  0  0  0
 15 30  1  0  0  0  0
 15 31  1  0  0  0  0
M  END
>  <Mol_ID>
1957

>  <Formula>
C12H16O3

>  <MolWeight>
208.25364

>  <Cat>
S4772

>  <Name>
alpha-Asarone

>  <Synonyms>
trans-Asarone

>  <Target>
GABA Receptor

>  <Form>
free base

>  <CAS>
2883-98-9

>  <URL>
http://selleckchem.com/products/alpha-asarone.html

$$$$
