S4775 Cortodoxone.cdx
 OpenBabel08302519523D

 55 58  0  0  0  0  0  0  0  0999 V2000
    0.5267   -0.7873   -0.0199 C   0  0  1  0  0  0  0  0  0  0  0  0
   -0.0656   -1.9364    0.7816 C   0  0  1  0  0  0  0  0  0  0  0  0
    1.1486   -0.9032   -1.4350 C   0  0  1  0  0  0  0  0  0  0  0  0
   -0.1677    0.5699   -0.1351 C   0  0  0  0  0  0  0  0  0  0  0  0
   -1.1745   -2.6174    0.0591 C   0  0  1  0  0  0  0  0  0  0  0  0
    0.8250   -3.1554    1.4183 C   0  0  0  0  0  0  0  0  0  0  0  0
    2.0678    0.3634   -1.0882 C   0  0  2  0  0  0  0  0  0  0  0  0
    0.9351   -2.4025   -1.6747 C   0  0  0  0  0  0  0  0  0  0  0  0
    0.9174    1.4226   -0.8932 C   0  0  0  0  0  0  0  0  0  0  0  0
   -2.0956   -3.3065    1.3722 C   0  0  2  0  0  0  0  0  0  0  0  0
   -0.7553   -2.6734   -1.4926 C   0  0  0  0  0  0  0  0  0  0  0  0
    0.0496   -4.5711    1.7061 C   0  0  0  0  0  0  0  0  0  0  0  0
    3.3596    0.5113   -1.8573 C   0  0  0  0  0  0  0  0  0  0  0  0
    2.7720    0.4729    0.2080 O   0  0  0  0  0  0  0  0  0  0  0  0
   -1.4449   -4.6657    1.2720 C   0  0  0  0  0  0  0  0  0  0  0  0
   -3.6342   -3.5004    1.5453 C   0  0  0  0  0  0  0  0  0  0  0  0
   -1.8217   -2.5300    2.7469 C   0  0  0  0  0  0  0  0  0  0  0  0
    4.3265   -0.6711   -1.6661 C   0  0  0  0  0  0  0  0  0  0  0  0
    3.6629    1.5265   -2.4810 O   0  0  0  0  0  0  0  0  0  0  0  0
   -1.9481   -5.4545    0.2822 C   0  0  0  0  0  0  0  0  0  0  0  0
   -4.2738   -4.7541    0.9672 C   0  0  0  0  0  0  0  0  0  0  0  0
    4.1488   -1.6929   -2.6493 O   0  0  0  0  0  0  0  0  0  0  0  0
   -3.3732   -5.2142   -0.1336 C   0  0  0  0  0  0  0  0  0  0  0  0
   -3.7988   -5.4448   -1.2675 O   0  0  0  0  0  0  0  0  0  0  0  0
    0.5265   -0.4095   -2.8368 C   0  0  0  0  0  0  0  0  0  0  0  0
    1.3221   -0.6740    0.7178 H   0  0  0  0  0  0  0  0  0  0  0  0
   -0.4096   -1.3491    1.6251 H   0  0  0  0  0  0  0  0  0  0  0  0
   -0.4248    0.9890    0.8389 H   0  0  0  0  0  0  0  0  0  0  0  0
   -1.0926    0.4789   -0.7193 H   0  0  0  0  0  0  0  0  0  0  0  0
   -0.6561   -3.5522   -0.1112 H   0  0  0  0  0  0  0  0  0  0  0  0
    1.6910   -3.4031    0.7967 H   0  0  0  0  0  0  0  0  0  0  0  0
    1.2694   -2.8158    2.3563 H   0  0  0  0  0  0  0  0  0  0  0  0
    1.2375   -2.7366   -2.6782 H   0  0  0  0  0  0  0  0  0  0  0  0
    1.5357   -3.0407   -1.0326 H   0  0  0  0  0  0  0  0  0  0  0  0
    0.5069    1.8183   -1.8305 H   0  0  0  0  0  0  0  0  0  0  0  0
    1.1775    2.2937   -0.2869 H   0  0  0  0  0  0  0  0  0  0  0  0
   -1.3261   -1.9390   -2.0663 H   0  0  0  0  0  0  0  0  0  0  0  0
   -0.9540   -3.6502   -1.9626 H   0  0  0  0  0  0  0  0  0  0  0  0
    0.0919   -4.7660    2.7842 H   0  0  0  0  0  0  0  0  0  0  0  0
    0.6105   -5.3832    1.2214 H   0  0  0  0  0  0  0  0  0  0  0  0
    2.8521    1.4259    0.4175 H   0  0  0  0  0  0  0  0  0  0  0  0
   -4.2004   -2.5820    1.3635 H   0  0  0  0  0  0  0  0  0  0  0  0
   -3.8171   -3.6789    2.6269 H   0  0  0  0  0  0  0  0  0  0  0  0
   -2.3308   -2.9659    3.6107 H   0  0  0  0  0  0  0  0  0  0  0  0
   -0.7890   -2.5072    3.1007 H   0  0  0  0  0  0  0  0  0  0  0  0
   -2.1840   -1.4943    2.6541 H   0  0  0  0  0  0  0  0  0  0  0  0
    5.3583   -0.3085   -1.6598 H   0  0  0  0  0  0  0  0  0  0  0  0
    4.1685   -1.1307   -0.6767 H   0  0  0  0  0  0  0  0  0  0  0  0
   -1.3376   -5.9005   -0.5017 H   0  0  0  0  0  0  0  0  0  0  0  0
   -4.3019   -5.5476    1.7375 H   0  0  0  0  0  0  0  0  0  0  0  0
   -5.3109   -4.5593    0.6984 H   0  0  0  0  0  0  0  0  0  0  0  0
    4.4448   -1.3107   -3.4615 H   0  0  0  0  0  0  0  0  0  0  0  0
    0.5156   -1.1872   -3.6148 H   0  0  0  0  0  0  0  0  0  0  0  0
    1.1393    0.3622   -3.3186 H   0  0  0  0  0  0  0  0  0  0  0  0
   -0.4967   -0.0396   -2.7448 H   0  0  0  0  0  0  0  0  0  0  0  0
  1  2  1  0  0  0  0
  1  3  1  0  0  0  0
  1  4  1  0  0  0  0
  1 26  1  1  0  0  0
  2  5  1  0  0  0  0
  2  6  1  0  0  0  0
  2 27  1  1  0  0  0
  3  7  1  0  0  0  0
  3  8  1  0  0  0  0
  3 25  1  6  0  0  0
  4  9  1  0  0  0  0
  4 28  1  0  0  0  0
  4 29  1  0  0  0  0
  5 10  1  0  0  0  0
  5 11  1  0  0  0  0
  5 30  1  1  0  0  0
  6 12  1  0  0  0  0
  6 31  1  0  0  0  0
  6 32  1  0  0  0  0
  7  9  1  0  0  0  0
  7 14  1  1  0  0  0
  7 13  1  0  0  0  0
  8 11  1  0  0  0  0
  8 33  1  0  0  0  0
  8 34  1  0  0  0  0
  9 35  1  0  0  0  0
  9 36  1  0  0  0  0
 10 15  1  0  0  0  0
 10 16  1  0  0  0  0
 10 17  1  1  0  0  0
 11 37  1  0  0  0  0
 11 38  1  0  0  0  0
 12 15  1  0  0  0  0
 12 39  1  0  0  0  0
 12 40  1  0  0  0  0
 13 18  1  0  0  0  0
 13 19  2  0  0  0  0
 14 41  1  0  0  0  0
 15 20  2  0  0  0  0
 16 21  1  0  0  0  0
 16 42  1  0  0  0  0
 16 43  1  0  0  0  0
 17 44  1  0  0  0  0
 17 45  1  0  0  0  0
 17 46  1  0  0  0  0
 18 22  1  0  0  0  0
 18 47  1  0  0  0  0
 18 48  1  0  0  0  0
 20 23  1  0  0  0  0
 20 49  1  0  0  0  0
 21 23  1  0  0  0  0
 21 50  1  0  0  0  0
 21 51  1  0  0  0  0
 22 52  1  0  0  0  0
 23 24  2  0  0  0  0
 25 53  1  0  0  0  0
 25 54  1  0  0  0  0
 25 55  1  0  0  0  0
M  END
>  <Mol_ID>
1959

>  <Formula>
C21H30O4

>  <MolWeight>
346.4605

>  <Cat>
S4775

>  <Name>
Cortodoxone

>  <Synonyms>
11-Deoxycortisol, cortexolone, 11-Desoxycortisol, 17¦Á,21-dihydroxyprogesterone

>  <Target>
Glucocorticoid Receptor

>  <Form>
free base

>  <CAS>
152-58-9

>  <URL>
http://selleckchem.com/products/cortodoxone.html

$$$$
