S4784 Phloracetophenone.cdx
 OpenBabel08302519523D

 20 20  0  0  0  0  0  0  0  0999 V2000
   -0.6078    1.3519   -0.0428 C   0  0  0  0  0  0  0  0  0  0  0  0
   -1.3934    0.1851    0.0144 C   0  0  0  0  0  0  0  0  0  0  0  0
    0.7848    1.2014   -0.0649 C   0  0  0  0  0  0  0  0  0  0  0  0
   -1.3081    2.6677   -0.0998 C   0  0  0  0  0  0  0  0  0  0  0  0
   -0.8124   -1.0817    0.0666 C   0  0  0  0  0  0  0  0  0  0  0  0
   -2.7649    0.2082    0.0237 O   0  0  0  0  0  0  0  0  0  0  0  0
    1.3796   -0.0662   -0.0295 C   0  0  0  0  0  0  0  0  0  0  0  0
    1.6245    2.2723   -0.1764 O   0  0  0  0  0  0  0  0  0  0  0  0
   -0.6893    3.9304    0.4382 C   0  0  0  0  0  0  0  0  0  0  0  0
   -2.4643    2.6883   -0.5358 O   0  0  0  0  0  0  0  0  0  0  0  0
    0.5726   -1.1964    0.0358 C   0  0  0  0  0  0  0  0  0  0  0  0
    1.0997   -2.4539    0.0608 O   0  0  0  0  0  0  0  0  0  0  0  0
   -1.4354   -1.9697    0.1100 H   0  0  0  0  0  0  0  0  0  0  0  0
   -3.0513    1.1158   -0.2290 H   0  0  0  0  0  0  0  0  0  0  0  0
    2.4634   -0.1485   -0.0749 H   0  0  0  0  0  0  0  0  0  0  0  0
    2.0399    2.3953    0.6977 H   0  0  0  0  0  0  0  0  0  0  0  0
   -0.6050    4.6607   -0.3709 H   0  0  0  0  0  0  0  0  0  0  0  0
   -1.3486    4.3247    1.2178 H   0  0  0  0  0  0  0  0  0  0  0  0
    0.2847    3.7915    0.9009 H   0  0  0  0  0  0  0  0  0  0  0  0
    2.0635   -2.4011   -0.0507 H   0  0  0  0  0  0  0  0  0  0  0  0
  1  2  2  0  0  0  0
  1  3  1  0  0  0  0
  1  4  1  0  0  0  0
  2  5  1  0  0  0  0
  2  6  1  0  0  0  0
  3  7  2  0  0  0  0
  3  8  1  0  0  0  0
  4  9  1  0  0  0  0
  4 10  2  0  0  0  0
  5 11  2  0  0  0  0
  5 13  1  0  0  0  0
  6 14  1  0  0  0  0
  7 11  1  0  0  0  0
  7 15  1  0  0  0  0
  8 16  1  0  0  0  0
  9 17  1  0  0  0  0
  9 18  1  0  0  0  0
  9 19  1  0  0  0  0
 11 12  1  0  0  0  0
 12 20  1  0  0  0  0
M  END
>  <Mol_ID>
1952

>  <Formula>
C8H8O4

>  <MolWeight>
168.14672

>  <Cat>
S4784

>  <Name>
Phloracetophenone

>  <Synonyms>
2,4,6-trihydroxyacetophenone

>  <Target>
P450 (e.g. CYP17)

>  <Form>
free base

>  <CAS>
480-66-0

>  <URL>
http://selleckchem.com/products/phloracetophenone.html

$$$$
