S4783 Benzyl isothiocyanate.cdx
 OpenBabel08302519523D

 17 17  0  0  0  0  0  0  0  0999 V2000
    1.3742   -0.2350    0.0524 C   0  0  0  0  0  0  0  0  0  0  0  0
    0.4769   -1.3109    0.0230 C   0  0  0  0  0  0  0  0  0  0  0  0
    0.8663    1.0721    0.0361 C   0  0  0  0  0  0  0  0  0  0  0  0
    2.8659   -0.4748    0.0764 C   0  0  0  0  0  0  0  0  0  0  0  0
   -0.9008   -1.0843   -0.0022 C   0  0  0  0  0  0  0  0  0  0  0  0
   -0.5112    1.2965    0.0160 C   0  0  0  0  0  0  0  0  0  0  0  0
    3.4571   -0.5459   -1.2693 N   0  0  0  0  0  0  0  0  0  0  0  0
   -1.3944    0.2190   -0.0017 C   0  0  0  0  0  0  0  0  0  0  0  0
    3.5109   -1.6219   -1.7361 C   0  0  0  0  0  0  0  0  0  0  0  0
    3.5957   -3.0751   -2.3794 S   0  0  0  0  0  0  0  0  0  0  0  0
    0.8417   -2.3360    0.0229 H   0  0  0  0  0  0  0  0  0  0  0  0
    1.5431    1.9239    0.0428 H   0  0  0  0  0  0  0  0  0  0  0  0
    3.3443    0.3575    0.6099 H   0  0  0  0  0  0  0  0  0  0  0  0
    3.0946   -1.3650    0.6806 H   0  0  0  0  0  0  0  0  0  0  0  0
   -1.5895   -1.9251   -0.0220 H   0  0  0  0  0  0  0  0  0  0  0  0
   -0.8956    2.3135    0.0127 H   0  0  0  0  0  0  0  0  0  0  0  0
   -2.4666    0.3946   -0.0184 H   0  0  0  0  0  0  0  0  0  0  0  0
  1  2  2  0  0  0  0
  1  3  1  0  0  0  0
  1  4  1  0  0  0  0
  2  5  1  0  0  0  0
  2 11  1  0  0  0  0
  3  6  2  0  0  0  0
  3 12  1  0  0  0  0
  4  7  1  0  0  0  0
  4 13  1  0  0  0  0
  4 14  1  0  0  0  0
  5  8  2  0  0  0  0
  5 15  1  0  0  0  0
  6  8  1  0  0  0  0
  6 16  1  0  0  0  0
  7  9  2  0  0  0  0
  8 17  1  0  0  0  0
  9 10  2  0  0  0  0
M  END
>  <Mol_ID>
1951

>  <Formula>
C8H7NS

>  <MolWeight>
149.21288

>  <Cat>
S4783

>  <Name>
Benzyl isothiocyanate

>  <Synonyms>
Benzoylthiocarbimide, Isothiocyanic Acid Benzoyl Ester

>  <Target>
Antibiotics

>  <Form>
free base

>  <CAS>
622-78-6

>  <URL>
http://selleckchem.com/products/benzyl-isothiocyanate.html

$$$$
