S4782 5-methoxyflavone.cdx
 OpenBabel08302519523D

 31 33  0  0  0  0  0  0  0  0999 V2000
    0.3521   -0.8199    0.0274 C   0  0  0  0  0  0  0  0  0  0  0  0
   -0.0830    0.5261    0.0703 C   0  0  0  0  0  0  0  0  0  0  0  0
   -0.4902   -1.9125    0.0023 O   0  0  0  0  0  0  0  0  0  0  0  0
    1.7080   -1.1638   -0.0006 C   0  0  0  0  0  0  0  0  0  0  0  0
    0.8981    1.5391    0.0503 C   0  0  0  0  0  0  0  0  0  0  0  0
   -1.5616    0.7084    0.1533 C   0  0  0  0  0  0  0  0  0  0  0  0
   -1.8420   -1.6881   -0.0636 C   0  0  0  0  0  0  0  0  0  0  0  0
    2.6685   -0.1698   -0.0059 C   0  0  0  0  0  0  0  0  0  0  0  0
    2.2605    1.1590    0.0126 C   0  0  0  0  0  0  0  0  0  0  0  0
    0.8413    2.9018    0.0503 O   0  0  0  0  0  0  0  0  0  0  0  0
   -2.4098   -0.4837   -0.0009 C   0  0  0  0  0  0  0  0  0  0  0  0
   -2.1450    1.7631    0.3541 O   0  0  0  0  0  0  0  0  0  0  0  0
   -2.6683   -2.8844   -0.2199 C   0  0  0  0  0  0  0  0  0  0  0  0
   -0.3668    3.6288    0.0005 C   0  0  0  0  0  0  0  0  0  0  0  0
   -2.9792   -3.3490   -1.5028 C   0  0  0  0  0  0  0  0  0  0  0  0
   -3.1989   -3.5373    0.8985 C   0  0  0  0  0  0  0  0  0  0  0  0
   -3.8212   -4.4500   -1.6665 C   0  0  0  0  0  0  0  0  0  0  0  0
   -4.0403   -4.6401    0.7324 C   0  0  0  0  0  0  0  0  0  0  0  0
   -4.3529   -5.0928   -0.5489 C   0  0  0  0  0  0  0  0  0  0  0  0
    2.0071   -2.2093   -0.0211 H   0  0  0  0  0  0  0  0  0  0  0  0
    3.7259   -0.4196   -0.0285 H   0  0  0  0  0  0  0  0  0  0  0  0
    3.0248    1.9368   -0.0029 H   0  0  0  0  0  0  0  0  0  0  0  0
   -3.4809   -0.3277   -0.0374 H   0  0  0  0  0  0  0  0  0  0  0  0
   -0.9661    3.3570   -0.8723 H   0  0  0  0  0  0  0  0  0  0  0  0
   -0.8995    3.5522    0.9514 H   0  0  0  0  0  0  0  0  0  0  0  0
   -0.1075    4.6863   -0.1172 H   0  0  0  0  0  0  0  0  0  0  0  0
   -2.5771   -2.8500   -2.3812 H   0  0  0  0  0  0  0  0  0  0  0  0
   -2.9702   -3.1877    1.9027 H   0  0  0  0  0  0  0  0  0  0  0  0
   -4.0673   -4.8011   -2.6655 H   0  0  0  0  0  0  0  0  0  0  0  0
   -4.4574   -5.1413    1.6019 H   0  0  0  0  0  0  0  0  0  0  0  0
   -5.0142   -5.9462   -0.6778 H   0  0  0  0  0  0  0  0  0  0  0  0
  1  2  2  0  0  0  0
  1  3  1  0  0  0  0
  1  4  1  0  0  0  0
  2  5  1  0  0  0  0
  2  6  1  0  0  0  0
  3  7  1  0  0  0  0
  4  8  2  0  0  0  0
  4 20  1  0  0  0  0
  5  9  2  0  0  0  0
  5 10  1  0  0  0  0
  6 11  1  0  0  0  0
  6 12  2  0  0  0  0
  7 13  1  0  0  0  0
  7 11  2  0  0  0  0
  8  9  1  0  0  0  0
  8 21  1  0  0  0  0
  9 22  1  0  0  0  0
 10 14  1  0  0  0  0
 11 23  1  0  0  0  0
 13 15  2  0  0  0  0
 13 16  1  0  0  0  0
 14 24  1  0  0  0  0
 14 25  1  0  0  0  0
 14 26  1  0  0  0  0
 15 17  1  0  0  0  0
 15 27  1  0  0  0  0
 16 18  2  0  0  0  0
 16 28  1  0  0  0  0
 17 19  2  0  0  0  0
 17 29  1  0  0  0  0
 18 19  1  0  0  0  0
 18 30  1  0  0  0  0
 19 31  1  0  0  0  0
M  END
>  <Mol_ID>
1950

>  <Formula>
C16H12O3

>  <MolWeight>
252.26468

>  <Cat>
S4782

>  <Name>
5-methoxyflavone

>  <Synonyms>
N/A

>  <Target>
DNA/RNA Synthesis

>  <Form>
free base

>  <CAS>
42079-78-7

>  <URL>
http://selleckchem.com/products/5-methoxyflavone.html

$$$$
