S4807 Uracil 1-¦Â-D-arabinofuranoside.cdx
 OpenBabel08302519523D

 29 30  0  0  0  0  0  0  0  0999 V2000
    1.0235   -1.1938    0.0572 C   0  0  2  0  0  0  0  0  0  0  0  0
    1.1742   -1.8344    1.3901 N   0  0  0  0  0  0  0  0  0  0  0  0
    1.8475   -0.0195   -0.0696 O   0  0  0  0  0  0  0  0  0  0  0  0
   -0.4001   -0.6967   -0.2817 C   0  0  2  0  0  0  0  0  0  0  0  0
    2.0294   -1.3294    2.3727 C   0  0  0  0  0  0  0  0  0  0  0  0
    0.5062   -3.0344    1.5982 C   0  0  0  0  0  0  0  0  0  0  0  0
    1.0065    1.1586    0.0216 C   0  0  1  0  0  0  0  0  0  0  0  0
   -0.3977    0.6807    0.3597 C   0  0  1  0  0  0  0  0  0  0  0  0
   -1.4828   -1.5227    0.1223 O   0  0  0  0  0  0  0  0  0  0  0  0
    2.0127   -1.9946    3.5737 N   0  0  0  0  0  0  0  0  0  0  0  0
    2.7688   -0.3564    2.2719 O   0  0  0  0  0  0  0  0  0  0  0  0
    0.5098   -3.6702    2.7713 C   0  0  0  0  0  0  0  0  0  0  0  0
    1.5436    2.1372    1.0635 C   0  0  0  0  0  0  0  0  0  0  0  0
   -1.4221    1.5302   -0.1373 O   0  0  0  0  0  0  0  0  0  0  0  0
    1.2553   -3.0781    3.8872 C   0  0  0  0  0  0  0  0  0  0  0  0
    2.8928    2.4798    0.7542 O   0  0  0  0  0  0  0  0  0  0  0  0
    1.1851   -3.5478    5.0184 O   0  0  0  0  0  0  0  0  0  0  0  0
    1.3616   -1.9279   -0.6834 H   0  0  0  0  0  0  0  0  0  0  0  0
   -0.4881   -0.5811   -1.3697 H   0  0  0  0  0  0  0  0  0  0  0  0
   -0.0492   -3.4485    0.7608 H   0  0  0  0  0  0  0  0  0  0  0  0
    1.0419    1.6400   -0.9643 H   0  0  0  0  0  0  0  0  0  0  0  0
   -0.5504    0.5928    1.4418 H   0  0  0  0  0  0  0  0  0  0  0  0
   -1.7445   -1.2637    1.0245 H   0  0  0  0  0  0  0  0  0  0  0  0
    2.5701   -1.5920    4.3093 H   0  0  0  0  0  0  0  0  0  0  0  0
   -0.0216   -4.5938    2.9530 H   0  0  0  0  0  0  0  0  0  0  0  0
    0.9476    3.0584    1.0812 H   0  0  0  0  0  0  0  0  0  0  0  0
    1.5278    1.7174    2.0718 H   0  0  0  0  0  0  0  0  0  0  0  0
   -1.3621    1.5689   -1.1088 H   0  0  0  0  0  0  0  0  0  0  0  0
    3.3770    1.6290    0.7985 H   0  0  0  0  0  0  0  0  0  0  0  0
  1  2  1  0  0  0  0
  1  3  1  0  0  0  0
  1  4  1  0  0  0  0
  1 18  1  6  0  0  0
  2  5  1  0  0  0  0
  2  6  1  0  0  0  0
  3  7  1  0  0  0  0
  4  8  1  0  0  0  0
  4  9  1  0  0  0  0
  4 19  1  6  0  0  0
  5 10  1  0  0  0  0
  5 11  2  0  0  0  0
  6 12  2  0  0  0  0
  6 20  1  0  0  0  0
  7 13  1  0  0  0  0
  7  8  1  0  0  0  0
  7 21  1  6  0  0  0
  8 14  1  0  0  0  0
  8 22  1  1  0  0  0
  9 23  1  0  0  0  0
 10 15  1  0  0  0  0
 10 24  1  0  0  0  0
 12 15  1  0  0  0  0
 12 25  1  0  0  0  0
 13 16  1  0  0  0  0
 13 26  1  0  0  0  0
 13 27  1  0  0  0  0
 14 28  1  0  0  0  0
 15 17  2  0  0  0  0
 16 29  1  0  0  0  0
M  END
>  <Mol_ID>
1973

>  <Formula>
C9H12N2O6

>  <MolWeight>
244.20138

>  <Cat>
S4807

>  <Name>
Uracil 1-¦Â-D-arabinofuranoside

>  <Synonyms>
Spongouridine, Arauridine, 1-beta-D-Arabinofuranosyluracil, Ara-U

>  <Target>
Others

>  <Form>
free base

>  <CAS>
3083-77-0

>  <URL>
http://selleckchem.com/products/uracil-1-beta-d-arabinofuranoside.html

$$$$
