S4806 Potassium 1-Naphthaleneacetate.cdx
 OpenBabel08302519513D

 23 24  0  0  0  0  0  0  0  0999 V2000
   -0.0456   -0.7124    0.0075 C   0  0  0  0  0  0  0  0  0  0  0  0
   -0.0232    0.7067   -0.0046 C   0  0  0  0  0  0  0  0  0  0  0  0
    1.1879   -1.4195    0.0512 C   0  0  0  0  0  0  0  0  0  0  0  0
   -1.3090   -1.3438   -0.0287 C   0  0  0  0  0  0  0  0  0  0  0  0
    1.2045    1.3863   -0.0054 C   0  0  0  0  0  0  0  0  0  0  0  0
   -1.2290    1.4294   -0.0231 C   0  0  0  0  0  0  0  0  0  0  0  0
    2.3982   -0.7031    0.0290 C   0  0  0  0  0  0  0  0  0  0  0  0
    1.2733   -2.9313    0.1246 C   0  0  0  0  0  0  0  0  0  0  0  0
   -2.4991   -0.6125   -0.0452 C   0  0  0  0  0  0  0  0  0  0  0  0
    2.4077    0.6868    0.0025 C   0  0  0  0  0  0  0  0  0  0  0  0
   -2.4599    0.7749   -0.0367 C   0  0  0  0  0  0  0  0  0  0  0  0
    1.3333   -3.5883   -1.2529 C   0  0  0  0  0  0  0  0  0  0  0  0
    2.4959   -3.7317   -1.7335 O   0  0  0  0  0  0  0  0  0  0  0  0
    0.2224   -3.9810   -1.7161 O   0  5  0  0  0  0  0  0  0  0  0  0
   -1.3766   -2.4299   -0.0762 H   0  0  0  0  0  0  0  0  0  0  0  0
    1.2319    2.4724   -0.0278 H   0  0  0  0  0  0  0  0  0  0  0  0
   -1.2149    2.5162   -0.0343 H   0  0  0  0  0  0  0  0  0  0  0  0
    3.3411   -1.2479    0.0201 H   0  0  0  0  0  0  0  0  0  0  0  0
    2.1686   -3.2192    0.6921 H   0  0  0  0  0  0  0  0  0  0  0  0
    0.4420   -3.3436    0.7075 H   0  0  0  0  0  0  0  0  0  0  0  0
   -3.4485   -1.1386   -0.0791 H   0  0  0  0  0  0  0  0  0  0  0  0
    3.3531    1.2196   -0.0186 H   0  0  0  0  0  0  0  0  0  0  0  0
   -3.3824    1.3461   -0.0566 H   0  0  0  0  0  0  0  0  0  0  0  0
  1  2  1  0  0  0  0
  1  3  2  0  0  0  0
  1  4  1  0  0  0  0
  2  5  2  0  0  0  0
  2  6  1  0  0  0  0
  3  7  1  0  0  0  0
  3  8  1  0  0  0  0
  4  9  2  0  0  0  0
  4 15  1  0  0  0  0
  5 10  1  0  0  0  0
  5 16  1  0  0  0  0
  6 11  2  0  0  0  0
  6 17  1  0  0  0  0
  7 10  2  0  0  0  0
  7 18  1  0  0  0  0
  8 12  1  0  0  0  0
  8 19  1  0  0  0  0
  8 20  1  0  0  0  0
  9 11  1  0  0  0  0
  9 21  1  0  0  0  0
 10 22  1  0  0  0  0
 11 23  1  0  0  0  0
 12 13  2  0  0  0  0
 12 14  1  0  0  0  0
M  CHG  1  14  -1
M  END
>  <Mol_ID>
1899

>  <Formula>
C12H9KO2

>  <MolWeight>
224.29696

>  <Cat>
S4806

>  <Name>
Potassium 1-Naphthaleneacetate

>  <Synonyms>
KANU, Potassium alpha-naphthylacetate, ¦Á-Naphthaleneacetic Acid Potassium Salt, 1-NAA Potassium Salt

>  <Target>
Fungal

>  <Form>
potassium salt

>  <CAS>
15165-79-4

>  <URL>
http://selleckchem.com/products/potassium-1-naphthaleneacetate.html

$$$$
