S4805 Carboxine.cdx
 OpenBabel08302519523D

 29 30  0  0  0  0  0  0  0  0999 V2000
   -1.4604   -0.3761   -0.1112 C   0  0  0  0  0  0  0  0  0  0  0  0
   -2.9061   -0.8441    0.0156 C   0  0  0  0  0  0  0  0  0  0  0  0
   -0.4751   -1.2790   -0.3297 C   0  0  0  0  0  0  0  0  0  0  0  0
   -1.1637    1.3248    0.1109 S   0  0  0  0  0  0  0  0  0  0  0  0
   -3.8602    0.1200   -0.2330 N   0  0  0  0  0  0  0  0  0  0  0  0
   -3.1530   -2.0093    0.3221 O   0  0  0  0  0  0  0  0  0  0  0  0
    0.8818   -1.0345   -0.2690 O   0  0  0  0  0  0  0  0  0  0  0  0
   -0.7415   -2.7090   -0.7358 C   0  0  0  0  0  0  0  0  0  0  0  0
    0.5860    1.2822    0.5638 C   0  0  0  0  0  0  0  0  0  0  0  0
   -5.2610   -0.0512   -0.1755 C   0  0  0  0  0  0  0  0  0  0  0  0
    1.3571    0.3052   -0.3020 C   0  0  0  0  0  0  0  0  0  0  0  0
   -5.8855   -1.1712    0.3894 C   0  0  0  0  0  0  0  0  0  0  0  0
   -6.0659    0.9558   -0.7238 C   0  0  0  0  0  0  0  0  0  0  0  0
   -7.2780   -1.3034    0.3710 C   0  0  0  0  0  0  0  0  0  0  0  0
   -7.4583    0.8193   -0.7511 C   0  0  0  0  0  0  0  0  0  0  0  0
   -8.0651   -0.3179   -0.2065 C   0  0  0  0  0  0  0  0  0  0  0  0
   -3.5151    1.0238   -0.5348 H   0  0  0  0  0  0  0  0  0  0  0  0
   -1.0661   -3.3184    0.1114 H   0  0  0  0  0  0  0  0  0  0  0  0
   -1.4877   -2.7531   -1.5381 H   0  0  0  0  0  0  0  0  0  0  0  0
    0.1654   -3.1705   -1.1428 H   0  0  0  0  0  0  0  0  0  0  0  0
    0.6658    1.0176    1.6222 H   0  0  0  0  0  0  0  0  0  0  0  0
    0.9994    2.2880    0.4330 H   0  0  0  0  0  0  0  0  0  0  0  0
    1.4124    0.6340   -1.3456 H   0  0  0  0  0  0  0  0  0  0  0  0
    2.3898    0.2674    0.0668 H   0  0  0  0  0  0  0  0  0  0  0  0
   -5.3152   -1.9591    0.8682 H   0  0  0  0  0  0  0  0  0  0  0  0
   -5.6230    1.8443   -1.1631 H   0  0  0  0  0  0  0  0  0  0  0  0
   -7.7388   -2.1854    0.8074 H   0  0  0  0  0  0  0  0  0  0  0  0
   -8.0703    1.5897   -1.2023 H   0  0  0  0  0  0  0  0  0  0  0  0
   -9.1442   -0.4282   -0.2391 H   0  0  0  0  0  0  0  0  0  0  0  0
  1  2  1  0  0  0  0
  1  3  2  0  0  0  0
  1  4  1  0  0  0  0
  2  5  1  0  0  0  0
  2  6  2  0  0  0  0
  3  7  1  0  0  0  0
  3  8  1  0  0  0  0
  4  9  1  0  0  0  0
  5 10  1  0  0  0  0
  5 17  1  0  0  0  0
  7 11  1  0  0  0  0
  8 18  1  0  0  0  0
  8 19  1  0  0  0  0
  8 20  1  0  0  0  0
  9 11  1  0  0  0  0
  9 21  1  0  0  0  0
  9 22  1  0  0  0  0
 10 12  2  0  0  0  0
 10 13  1  0  0  0  0
 11 23  1  0  0  0  0
 11 24  1  0  0  0  0
 12 14  1  0  0  0  0
 12 25  1  0  0  0  0
 13 15  2  0  0  0  0
 13 26  1  0  0  0  0
 14 16  2  0  0  0  0
 14 27  1  0  0  0  0
 15 16  1  0  0  0  0
 15 28  1  0  0  0  0
 16 29  1  0  0  0  0
M  END
>  <Mol_ID>
1966

>  <Formula>
C12H13NO2S

>  <MolWeight>
235.30212

>  <Cat>
S4805

>  <Name>
Carboxine

>  <Synonyms>
Carbathiin, Vitavax, Kisvax, Carboxin

>  <Target>
Dehydrogenase

>  <Form>
free base

>  <CAS>
5234-68-4

>  <URL>
http://selleckchem.com/products/carboxine.html

$$$$
