S4811 VitaMin U.cdx
 OpenBabel08302521383D

 24 23  0  0  0  0  0  0  0  0999 V2000
    0.7712    0.0287    0.1252 C   0  0  3  0  0  0  0  0  0  0  0  0
    0.5872    0.8275   -1.1718 C   0  0  0  0  0  0  0  0  0  0  0  0
    0.0381    0.6914    1.3075 C   0  0  0  0  0  0  0  0  0  0  0  0
    2.2035   -0.1305    0.5171 N   0  0  0  0  0  0  0  0  0  0  0  0
    1.1627    0.1076   -2.3909 C   0  0  0  0  0  0  0  0  0  0  0  0
    0.7158    0.4862    2.4712 O   0  0  0  0  0  0  0  0  0  0  0  0
   -1.0237    1.2907    1.2505 O   0  0  0  0  0  0  0  0  0  0  0  0
    0.9292    1.0882   -3.9080 S   0  3  0  0  0  0  0  0  0  0  0  0
    1.7891   -0.0531   -5.0214 C   0  0  0  0  0  0  0  0  0  0  0  0
   -0.7404    0.5123   -4.3090 C   0  0  0  0  0  0  0  0  0  0  0  0
    0.3370   -0.9722    0.0176 H   0  0  0  0  0  0  0  0  0  0  0  0
   -0.4830    1.0103   -1.3311 H   0  0  0  0  0  0  0  0  0  0  0  0
    1.0444    1.8209   -1.0672 H   0  0  0  0  0  0  0  0  0  0  0  0
    2.6850   -0.6642   -0.2097 H   0  0  0  0  0  0  0  0  0  0  0  0
    2.6453    0.7961    0.4826 H   0  0  0  0  0  0  0  0  0  0  0  0
    2.2438   -0.0185   -2.2738 H   0  0  0  0  0  0  0  0  0  0  0  0
    0.7167   -0.8844   -2.5130 H   0  0  0  0  0  0  0  0  0  0  0  0
    1.5400   -0.0019    2.2208 H   0  0  0  0  0  0  0  0  0  0  0  0
    1.4440   -1.0802   -4.8802 H   0  0  0  0  0  0  0  0  0  0  0  0
    1.6046    0.2558   -6.0534 H   0  0  0  0  0  0  0  0  0  0  0  0
    2.8620    0.0009   -4.8201 H   0  0  0  0  0  0  0  0  0  0  0  0
   -0.8162   -0.5756   -4.2359 H   0  0  0  0  0  0  0  0  0  0  0  0
   -1.4531    0.9760   -3.6240 H   0  0  0  0  0  0  0  0  0  0  0  0
   -0.9790    0.8208   -5.3310 H   0  0  0  0  0  0  0  0  0  0  0  0
  1  2  1  0  0  0  0
  1  3  1  0  0  0  0
  1  4  1  0  0  0  0
  1 11  1  0  0  0  0
  2  5  1  0  0  0  0
  2 12  1  0  0  0  0
  2 13  1  0  0  0  0
  3  6  1  0  0  0  0
  3  7  2  0  0  0  0
  4 14  1  0  0  0  0
  4 15  1  0  0  0  0
  5  8  1  0  0  0  0
  5 16  1  0  0  0  0
  5 17  1  0  0  0  0
  6 18  1  0  0  0  0
  8  9  1  0  0  0  0
  8 10  1  0  0  0  0
  9 19  1  0  0  0  0
  9 20  1  0  0  0  0
  9 21  1  0  0  0  0
 10 22  1  0  0  0  0
 10 23  1  0  0  0  0
 10 24  1  0  0  0  0
M  CHG  1   8   1
M  END
>  <Mol_ID>
7799

>  <Formula>
C6H14ClNO2S

>  <MolWeight>
199.69886

>  <Cat>
S4811

>  <Name>
VitaMin U

>  <Synonyms>
Methylmethioninesulfonium Chloride, Cabagin-U, Smethylmethionine

>  <Target>
Vitamin

>  <Form>
chloride

>  <CAS>
3493-12-7

>  <URL>
http://selleckchem.com/products/vitamin-u.html

$$$$
