S4819 Saccharin.cdx
 OpenBabel08302519533D

 17 18  0  0  0  0  0  0  0  0999 V2000
   -0.3272    0.6330    0.0140 C   0  0  0  0  0  0  0  0  0  0  0  0
   -0.9471   -0.6117    0.0132 C   0  0  0  0  0  0  0  0  0  0  0  0
    1.4038    0.4530   -0.0063 S   0  0  0  0  0  0  0  0  0  0  0  0
   -1.0362    1.8198    0.0073 C   0  0  0  0  0  0  0  0  0  0  0  0
    0.0147   -1.7296    0.0044 C   0  0  0  0  0  0  0  0  0  0  0  0
   -2.3295   -0.7103    0.0128 C   0  0  0  0  0  0  0  0  0  0  0  0
    1.3142   -1.2100   -0.0019 N   0  0  0  0  0  0  0  0  0  0  0  0
    1.9380    0.8922    1.2589 O   0  0  0  0  0  0  0  0  0  0  0  0
    1.9021    0.8872   -1.2878 O   0  0  0  0  0  0  0  0  0  0  0  0
   -2.4303    1.7297    0.0015 C   0  0  0  0  0  0  0  0  0  0  0  0
   -0.2574   -2.9132    0.0025 O   0  0  0  0  0  0  0  0  0  0  0  0
   -3.0718    0.4759    0.0058 C   0  0  0  0  0  0  0  0  0  0  0  0
   -0.5332    2.7818    0.0003 H   0  0  0  0  0  0  0  0  0  0  0  0
   -2.8228   -1.6783    0.0124 H   0  0  0  0  0  0  0  0  0  0  0  0
    2.1490   -1.7829    0.0158 H   0  0  0  0  0  0  0  0  0  0  0  0
   -3.0310    2.6380   -0.0107 H   0  0  0  0  0  0  0  0  0  0  0  0
   -4.1601    0.4317   -0.0004 H   0  0  0  0  0  0  0  0  0  0  0  0
  1  2  2  0  0  0  0
  1  3  1  0  0  0  0
  1  4  1  0  0  0  0
  2  5  1  0  0  0  0
  2  6  1  0  0  0  0
  3  7  1  0  0  0  0
  3  8  2  0  0  0  0
  3  9  2  0  0  0  0
  4 10  2  0  0  0  0
  4 13  1  0  0  0  0
  5 11  2  0  0  0  0
  5  7  1  0  0  0  0
  6 12  2  0  0  0  0
  6 14  1  0  0  0  0
  7 15  1  0  0  0  0
 10 12  1  0  0  0  0
 10 16  1  0  0  0  0
 12 17  1  0  0  0  0
M  END
>  <Mol_ID>
2057

>  <Formula>
C7H5NO3S

>  <MolWeight>
183.1845

>  <Cat>
S4819

>  <Name>
Saccharin

>  <Synonyms>
Benzoic sulfimide, O-Sulfobenzimide, O-Benzoic sulfimide, Saccharimide

>  <Target>
Others

>  <Form>
free base

>  <CAS>
81-07-2

>  <URL>
http://selleckchem.com/products/saccharin.html

$$$$
