S4815 L-Cysteine HCL.cdx
 OpenBabel08302519533D

 14 13  0  0  0  0  0  0  0  0999 V2000
    1.0476   -0.0196   -0.0953 C   0  0  2  0  0  0  0  0  0  0  0  0
    0.5084    0.3172   -1.4935 C   0  0  0  0  0  0  0  0  0  0  0  0
    0.5498   -1.4017    0.3479 C   0  0  0  0  0  0  0  0  0  0  0  0
    0.5896    1.0192    0.8632 N   0  0  0  0  0  0  0  0  0  0  0  0
    1.3237   -0.0639   -2.5029 O   0  0  0  0  0  0  0  0  0  0  0  0
   -0.5638    0.8740   -1.6955 O   0  0  0  0  0  0  0  0  0  0  0  0
    1.2808   -2.7549   -0.6358 S   0  0  0  0  0  0  0  0  0  0  0  0
    2.1416    0.0237   -0.1055 H   0  0  0  0  0  0  0  0  0  0  0  0
    0.8260   -1.5817    1.3934 H   0  0  0  0  0  0  0  0  0  0  0  0
   -0.5415   -1.4752    0.2737 H   0  0  0  0  0  0  0  0  0  0  0  0
    0.8967    1.9327    0.5222 H   0  0  0  0  0  0  0  0  0  0  0  0
   -0.4337    1.0732    0.8017 H   0  0  0  0  0  0  0  0  0  0  0  0
    2.1417   -0.5139   -2.2111 H   0  0  0  0  0  0  0  0  0  0  0  0
    0.5724   -2.5366   -1.7574 H   0  0  0  0  0  0  0  0  0  0  0  0
  1  2  1  0  0  0  0
  1  3  1  0  0  0  0
  1  4  1  0  0  0  0
  1  8  1  6  0  0  0
  2  5  1  0  0  0  0
  2  6  2  0  0  0  0
  3  7  1  0  0  0  0
  3  9  1  0  0  0  0
  3 10  1  0  0  0  0
  4 11  1  0  0  0  0
  4 12  1  0  0  0  0
  5 13  1  0  0  0  0
  7 14  1  0  0  0  0
M  END
>  <Mol_ID>
2055

>  <Formula>
C3H8ClNO2S

>  <MolWeight>
157.61912

>  <Cat>
S4815

>  <Name>
L-Cysteine HCl

>  <Synonyms>
N/A

>  <Target>
Others

>  <Form>
hydrochloride

>  <CAS>
52-89-1

>  <URL>
http://selleckchem.com/products/l-cysteine-hcl.html

$$$$
