S4839 Mosapride.cdx
 OpenBabel08302519533D

 54 56  0  0  0  0  0  0  0  0999 V2000
   -1.9191   -0.0588    0.1859 C   0  0  0  0  0  0  0  0  0  0  0  0
   -1.2097   -1.1588   -0.3229 C   0  0  0  0  0  0  0  0  0  0  0  0
   -1.2044    1.0199    0.7299 C   0  0  0  0  0  0  0  0  0  0  0  0
   -3.4124    0.0450    0.1894 C   0  0  0  0  0  0  0  0  0  0  0  0
    0.1940   -1.1717   -0.2372 C   0  0  0  0  0  0  0  0  0  0  0  0
   -1.9183   -2.2088   -0.8570 O   0  0  0  0  0  0  0  0  0  0  0  0
    0.1930    0.9976    0.7845 C   0  0  0  0  0  0  0  0  0  0  0  0
   -4.1128   -1.1330    0.2823 N   0  0  0  0  0  0  0  0  0  0  0  0
   -3.9526    1.1492    0.1430 O   0  0  0  0  0  0  0  0  0  0  0  0
    0.9074   -0.0784    0.2612 C   0  0  0  0  0  0  0  0  0  0  0  0
   -1.2555   -2.9405   -1.8923 C   0  0  0  0  0  0  0  0  0  0  0  0
   -5.5666   -1.2282    0.2502 C   0  0  0  0  0  0  0  0  0  0  0  0
    2.2881   -0.1722    0.4437 N   0  0  0  0  0  0  0  0  0  0  0  0
   -2.2502   -3.9008   -2.5122 C   0  0  0  0  0  0  0  0  0  0  0  0
   -6.0239   -2.0388   -0.9701 C   0  0  3  0  0  0  0  0  0  0  0  0
   -7.5585   -2.1576   -1.0341 C   0  0  0  0  0  0  0  0  0  0  0  0
   -5.4625   -3.3666   -0.8823 O   0  0  0  0  0  0  0  0  0  0  0  0
   -8.0459   -2.9308   -2.2046 N   0  0  0  0  0  0  0  0  0  0  0  0
   -5.7980   -4.1186   -2.0532 C   0  0  0  0  0  0  0  0  0  0  0  0
   -8.0109   -2.1702   -3.4657 C   0  0  0  0  0  0  0  0  0  0  0  0
   -7.3151   -4.2089   -2.2872 C   0  0  0  0  0  0  0  0  0  0  0  0
   -8.9418   -0.9710   -3.4131 C   0  0  0  0  0  0  0  0  0  0  0  0
   -8.4446    0.3294   -3.5902 C   0  0  0  0  0  0  0  0  0  0  0  0
  -10.2961   -1.1462   -3.0738 C   0  0  0  0  0  0  0  0  0  0  0  0
   -9.2632    1.4321   -3.3401 C   0  0  0  0  0  0  0  0  0  0  0  0
  -11.1097   -0.0426   -2.8215 C   0  0  0  0  0  0  0  0  0  0  0  0
  -10.5784    1.2356   -2.9337 C   0  0  0  0  0  0  0  0  0  0  0  0
  -11.3391    2.2945   -2.6265 F   0  0  0  0  0  0  0  0  0  0  0  0
   -1.7383    1.8780    1.1352 H   0  0  0  0  0  0  0  0  0  0  0  0
    0.7593   -2.0458   -0.5438 H   0  0  0  0  0  0  0  0  0  0  0  0
    0.7172    1.8310    1.2468 H   0  0  0  0  0  0  0  0  0  0  0  0
   -3.5989   -2.0028    0.2407 H   0  0  0  0  0  0  0  0  0  0  0  0
   -0.8822   -2.2572   -2.6654 H   0  0  0  0  0  0  0  0  0  0  0  0
   -0.4315   -3.5281   -1.4770 H   0  0  0  0  0  0  0  0  0  0  0  0
   -5.8594   -1.7258    1.1796 H   0  0  0  0  0  0  0  0  0  0  0  0
   -6.0085   -0.2247    0.2347 H   0  0  0  0  0  0  0  0  0  0  0  0
    2.7611    0.7261    0.5178 H   0  0  0  0  0  0  0  0  0  0  0  0
    2.7598   -0.7964   -0.2050 H   0  0  0  0  0  0  0  0  0  0  0  0
   -3.0606   -3.3466   -2.9924 H   0  0  0  0  0  0  0  0  0  0  0  0
   -1.7667   -4.5325   -3.2625 H   0  0  0  0  0  0  0  0  0  0  0  0
   -2.6975   -4.5408   -1.7447 H   0  0  0  0  0  0  0  0  0  0  0  0
   -5.6280   -1.5546   -1.8719 H   0  0  0  0  0  0  0  0  0  0  0  0
   -7.9105   -2.6910   -0.1407 H   0  0  0  0  0  0  0  0  0  0  0  0
   -8.0230   -1.1672   -0.9844 H   0  0  0  0  0  0  0  0  0  0  0  0
   -5.3877   -5.1249   -1.9179 H   0  0  0  0  0  0  0  0  0  0  0  0
   -5.2997   -3.6685   -2.9168 H   0  0  0  0  0  0  0  0  0  0  0  0
   -6.9913   -1.8548   -3.7179 H   0  0  0  0  0  0  0  0  0  0  0  0
   -8.3543   -2.8026   -4.2953 H   0  0  0  0  0  0  0  0  0  0  0  0
   -7.7373   -4.8645   -1.5155 H   0  0  0  0  0  0  0  0  0  0  0  0
   -7.5073   -4.7113   -3.2431 H   0  0  0  0  0  0  0  0  0  0  0  0
   -7.4082    0.4925   -3.8763 H   0  0  0  0  0  0  0  0  0  0  0  0
  -10.6975   -2.1496   -2.9429 H   0  0  0  0  0  0  0  0  0  0  0  0
   -8.8748    2.4417   -3.4273 H   0  0  0  0  0  0  0  0  0  0  0  0
  -12.1390   -0.1739   -2.5047 H   0  0  0  0  0  0  0  0  0  0  0  0
  1  2  2  0  0  0  0
  1  3  1  0  0  0  0
  1  4  1  0  0  0  0
  2  5  1  0  0  0  0
  2  6  1  0  0  0  0
  3  7  2  0  0  0  0
  3 29  1  0  0  0  0
  4  8  1  0  0  0  0
  4  9  2  0  0  0  0
  5 10  2  0  0  0  0
  5 30  1  0  0  0  0
  6 11  1  0  0  0  0
  7 10  1  0  0  0  0
  7 31  1  0  0  0  0
  8 12  1  0  0  0  0
  8 32  1  0  0  0  0
 10 13  1  0  0  0  0
 11 14  1  0  0  0  0
 11 33  1  0  0  0  0
 11 34  1  0  0  0  0
 12 15  1  0  0  0  0
 12 35  1  0  0  0  0
 12 36  1  0  0  0  0
 13 37  1  0  0  0  0
 13 38  1  0  0  0  0
 14 39  1  0  0  0  0
 14 40  1  0  0  0  0
 14 41  1  0  0  0  0
 15 16  1  0  0  0  0
 15 17  1  0  0  0  0
 15 42  1  0  0  0  0
 16 18  1  0  0  0  0
 16 43  1  0  0  0  0
 16 44  1  0  0  0  0
 17 19  1  0  0  0  0
 18 20  1  0  0  0  0
 18 21  1  0  0  0  0
 19 21  1  0  0  0  0
 19 45  1  0  0  0  0
 19 46  1  0  0  0  0
 20 22  1  0  0  0  0
 20 47  1  0  0  0  0
 20 48  1  0  0  0  0
 21 49  1  0  0  0  0
 21 50  1  0  0  0  0
 22 23  2  0  0  0  0
 22 24  1  0  0  0  0
 23 25  1  0  0  0  0
 23 51  1  0  0  0  0
 24 26  2  0  0  0  0
 24 52  1  0  0  0  0
 25 27  2  0  0  0  0
 25 53  1  0  0  0  0
 26 27  1  0  0  0  0
 26 54  1  0  0  0  0
 27 28  1  0  0  0  0
M  END
>  <Mol_ID>
2062

>  <Formula>
C21H25ClFN3O3

>  <MolWeight>
421.8929032

>  <Cat>
S4839

>  <Name>
Mosapride

>  <Synonyms>
N/A

>  <Target>
5-HT Receptor

>  <Form>
Benzamide

>  <CAS>
112885-41-3

>  <URL>
http://selleckchem.com/products/mosapride.html

$$$$
