S4832 Tolmetin.cdx
 OpenBabel08302519533D

 34 35  0  0  0  0  0  0  0  0999 V2000
   -0.0833   -1.1605    0.0040 C   0  0  0  0  0  0  0  0  0  0  0  0
    0.4212   -2.5310    0.0286 C   0  0  0  0  0  0  0  0  0  0  0  0
    0.6744   -0.0001   -0.0449 N   0  0  0  0  0  0  0  0  0  0  0  0
   -1.4133   -0.7581   -0.0200 C   0  0  0  0  0  0  0  0  0  0  0  0
   -0.4115   -3.5964    0.6694 C   0  0  0  0  0  0  0  0  0  0  0  0
    1.4890   -2.8687   -0.4725 O   0  0  0  0  0  0  0  0  0  0  0  0
   -0.1646    1.1036   -0.0143 C   0  0  0  0  0  0  0  0  0  0  0  0
    2.1242    0.0866   -0.0950 C   0  0  0  0  0  0  0  0  0  0  0  0
   -1.4642    0.6432    0.0347 C   0  0  0  0  0  0  0  0  0  0  0  0
   -1.2063   -3.3339    1.7928 C   0  0  0  0  0  0  0  0  0  0  0  0
   -0.3805   -4.8896    0.1366 C   0  0  0  0  0  0  0  0  0  0  0  0
    0.3059    2.5280   -0.0521 C   0  0  0  0  0  0  0  0  0  0  0  0
   -1.9997   -4.3411    2.3468 C   0  0  0  0  0  0  0  0  0  0  0  0
   -1.1696   -5.8979    0.6975 C   0  0  0  0  0  0  0  0  0  0  0  0
    0.4556    3.0669   -1.4608 C   0  0  0  0  0  0  0  0  0  0  0  0
   -1.9900   -5.6289    1.8012 C   0  0  0  0  0  0  0  0  0  0  0  0
   -0.3651    2.5444   -2.3994 O   0  0  0  0  0  0  0  0  0  0  0  0
    1.2295    3.9784   -1.7348 O   0  0  0  0  0  0  0  0  0  0  0  0
   -2.8417   -6.7161    2.3876 C   0  0  0  0  0  0  0  0  0  0  0  0
   -2.2708   -1.4216   -0.0477 H   0  0  0  0  0  0  0  0  0  0  0  0
    2.4023    0.5994   -1.0195 H   0  0  0  0  0  0  0  0  0  0  0  0
    2.4665    0.6514    0.7754 H   0  0  0  0  0  0  0  0  0  0  0  0
    2.5895   -0.8971   -0.0721 H   0  0  0  0  0  0  0  0  0  0  0  0
   -2.3576    1.2569    0.0641 H   0  0  0  0  0  0  0  0  0  0  0  0
   -1.2218   -2.3478    2.2515 H   0  0  0  0  0  0  0  0  0  0  0  0
    0.2501   -5.1144   -0.7210 H   0  0  0  0  0  0  0  0  0  0  0  0
   -0.4133    3.1682    0.4730 H   0  0  0  0  0  0  0  0  0  0  0  0
    1.2688    2.6292    0.4599 H   0  0  0  0  0  0  0  0  0  0  0  0
   -2.6232   -4.1118    3.2087 H   0  0  0  0  0  0  0  0  0  0  0  0
   -1.1416   -6.8967    0.2660 H   0  0  0  0  0  0  0  0  0  0  0  0
   -0.9236    1.8128   -2.0737 H   0  0  0  0  0  0  0  0  0  0  0  0
   -3.5585   -7.0762    1.6430 H   0  0  0  0  0  0  0  0  0  0  0  0
   -2.2150   -7.5491    2.7204 H   0  0  0  0  0  0  0  0  0  0  0  0
   -3.4091   -6.3573    3.2532 H   0  0  0  0  0  0  0  0  0  0  0  0
  1  2  1  0  0  0  0
  1  3  1  0  0  0  0
  1  4  2  0  0  0  0
  2  5  1  0  0  0  0
  2  6  2  0  0  0  0
  3  7  1  0  0  0  0
  3  8  1  0  0  0  0
  4  9  1  0  0  0  0
  4 20  1  0  0  0  0
  5 10  2  0  0  0  0
  5 11  1  0  0  0  0
  7 12  1  0  0  0  0
  7  9  2  0  0  0  0
  8 21  1  0  0  0  0
  8 22  1  0  0  0  0
  8 23  1  0  0  0  0
  9 24  1  0  0  0  0
 10 13  1  0  0  0  0
 10 25  1  0  0  0  0
 11 14  2  0  0  0  0
 11 26  1  0  0  0  0
 12 15  1  0  0  0  0
 12 27  1  0  0  0  0
 12 28  1  0  0  0  0
 13 16  2  0  0  0  0
 13 29  1  0  0  0  0
 14 16  1  0  0  0  0
 14 30  1  0  0  0  0
 15 17  1  0  0  0  0
 15 18  2  0  0  0  0
 16 19  1  0  0  0  0
 17 31  1  0  0  0  0
 19 32  1  0  0  0  0
 19 33  1  0  0  0  0
 19 34  1  0  0  0  0
M  END
>  <Mol_ID>
2060

>  <Formula>
C15H15NO3

>  <MolWeight>
257.2845

>  <Cat>
S4832

>  <Name>
Tolmetin

>  <Synonyms>
Tolectin

>  <Target>
Immunology & Inflammation related

>  <Form>
free base

>  <CAS>
26171-23-3

>  <URL>
http://selleckchem.com/products/tolmetin.html

$$$$
