S4843 Potassium acetate.cdx
 OpenBabel08302519523D

  8  7  0  0  0  0  0  0  0  0999 V2000
    0.8976    0.0648    0.1136 C   0  0  0  0  0  0  0  0  0  0  0  0
    0.4262   -0.6421    1.3495 C   0  0  0  0  0  0  0  0  0  0  0  0
   -0.3438    0.1148    2.1591 O   0  0  0  0  0  0  0  0  0  0  0  0
    0.7084   -1.8017    1.6107 O   0  0  0  0  0  0  0  0  0  0  0  0
    0.5336    1.0945    0.0714 H   0  0  0  0  0  0  0  0  0  0  0  0
    0.5251   -0.4662   -0.7662 H   0  0  0  0  0  0  0  0  0  0  0  0
    1.9904    0.0877    0.1095 H   0  0  0  0  0  0  0  0  0  0  0  0
   -0.4977    1.0238    1.8417 H   0  0  0  0  0  0  0  0  0  0  0  0
  1  2  1  0  0  0  0
  1  5  1  0  0  0  0
  1  6  1  0  0  0  0
  1  7  1  0  0  0  0
  2  3  1  0  0  0  0
  2  4  2  0  0  0  0
  3  8  1  0  0  0  0
M  END
>  <Mol_ID>
1984

>  <Formula>
C2H3KO2

>  <MolWeight>
98.14232

>  <Cat>
S4843

>  <Name>
Potassium acetate

>  <Synonyms>
Diuretic salt, Potassium ethanoate

>  <Target>
Fungal

>  <Form>
potassium salt

>  <CAS>
127-08-2

>  <URL>
http://selleckchem.com/products/potassium-acetate.html

$$$$
