S4849 Levocetirizine Dihydrochloride.cdx
 OpenBabel08302519533D

 52 54  0  0  0  0  0  0  0  0999 V2000
   -1.4214   -4.1600   -0.4111 C   0  0  0  0  0  0  0  0  0  0  0  0
   -0.3517   -3.1584    0.0182 C   0  0  0  0  0  0  0  0  0  0  0  0
   -2.4747   -4.3431    0.1728 O   0  0  0  0  0  0  0  0  0  0  0  0
   -1.0417   -4.8735   -1.5013 O   0  0  0  0  0  0  0  0  0  0  0  0
    0.4601   -2.7155   -1.0809 O   0  0  0  0  0  0  0  0  0  0  0  0
   -0.1867   -1.6801   -1.8414 C   0  0  0  0  0  0  0  0  0  0  0  0
    0.6838   -1.1809   -3.0292 C   0  0  0  0  0  0  0  0  0  0  0  0
    1.8638   -0.3339   -2.7617 N   0  0  0  0  0  0  0  0  0  0  0  0
    1.6105    0.9077   -2.0077 C   0  0  0  0  0  0  0  0  0  0  0  0
    1.1161    2.1278   -2.8325 C   0  0  0  0  0  0  0  0  0  0  0  0
    1.9539    2.4826   -4.0089 N   0  0  0  0  0  0  0  0  0  0  0  0
    2.0874    1.2401   -4.8032 C   0  0  0  0  0  0  0  0  0  0  0  0
    2.5767   -0.0144   -4.0264 C   0  0  0  0  0  0  0  0  0  0  0  0
    3.2690    3.0804   -3.6159 C   0  0  0  0  0  0  0  0  0  0  0  0
    4.2302    3.4120   -4.7794 C   0  0  0  0  0  0  0  0  0  0  0  0
    5.6180    3.2667   -4.5848 C   0  0  0  0  0  0  0  0  0  0  0  0
    6.5322    3.6824   -5.5571 C   0  0  0  0  0  0  0  0  0  0  0  0
    6.0776    4.2575   -6.7407 C   0  0  0  0  0  0  0  0  0  0  0  0
    4.7090    4.3993   -6.9594 C   0  0  0  0  0  0  0  0  0  0  0  0
    3.7921    3.9764   -5.9900 C   0  0  0  0  0  0  0  0  0  0  0  0
    3.1000    4.3426   -2.7452 C   0  0  0  0  0  0  0  0  0  0  0  0
    2.5392    5.5257   -3.2620 C   0  0  0  0  0  0  0  0  0  0  0  0
    2.4185    6.6704   -2.4689 C   0  0  0  0  0  0  0  0  0  0  0  0
    2.8357    6.6463   -1.1418 C   0  0  0  0  0  0  0  0  0  0  0  0
    3.3748    5.4790   -0.6063 C   0  0  0  0  0  0  0  0  0  0  0  0
    3.5147    4.3380   -1.4025 C   0  0  0  0  0  0  0  0  0  0  0  0
   -0.8211   -2.3091    0.5265 H   0  0  0  0  0  0  0  0  0  0  0  0
    0.3035   -3.6746    0.7293 H   0  0  0  0  0  0  0  0  0  0  0  0
   -0.1604   -4.5628   -1.7958 H   0  0  0  0  0  0  0  0  0  0  0  0
   -1.0984   -2.1142   -2.2703 H   0  0  0  0  0  0  0  0  0  0  0  0
   -0.4881   -0.8581   -1.1864 H   0  0  0  0  0  0  0  0  0  0  0  0
    1.0523   -2.0901   -3.5216 H   0  0  0  0  0  0  0  0  0  0  0  0
    0.0168   -0.6705   -3.7332 H   0  0  0  0  0  0  0  0  0  0  0  0
    0.9245    0.7352   -1.1733 H   0  0  0  0  0  0  0  0  0  0  0  0
    2.5564    1.1837   -1.5243 H   0  0  0  0  0  0  0  0  0  0  0  0
    0.1026    1.9112   -3.1960 H   0  0  0  0  0  0  0  0  0  0  0  0
    0.9857    2.9867   -2.1651 H   0  0  0  0  0  0  0  0  0  0  0  0
    1.0963    1.0194   -5.2243 H   0  0  0  0  0  0  0  0  0  0  0  0
    2.7258    1.3941   -5.6793 H   0  0  0  0  0  0  0  0  0  0  0  0
    3.6379    0.1181   -3.7860 H   0  0  0  0  0  0  0  0  0  0  0  0
    2.5418   -0.8745   -4.7079 H   0  0  0  0  0  0  0  0  0  0  0  0
    3.7999    2.3354   -3.0083 H   0  0  0  0  0  0  0  0  0  0  0  0
    5.9983    2.8592   -3.6513 H   0  0  0  0  0  0  0  0  0  0  0  0
    7.6001    3.5807   -5.3789 H   0  0  0  0  0  0  0  0  0  0  0  0
    6.7888    4.6072   -7.4849 H   0  0  0  0  0  0  0  0  0  0  0  0
    4.3541    4.8607   -7.8777 H   0  0  0  0  0  0  0  0  0  0  0  0
    2.7291    4.1176   -6.1724 H   0  0  0  0  0  0  0  0  0  0  0  0
    2.1985    5.5670   -4.2921 H   0  0  0  0  0  0  0  0  0  0  0  0
    2.0055    7.5818   -2.8965 H   0  0  0  0  0  0  0  0  0  0  0  0
    2.7457    7.5355   -0.5235 H   0  0  0  0  0  0  0  0  0  0  0  0
    3.6956    5.4595    0.4314 H   0  0  0  0  0  0  0  0  0  0  0  0
    3.9444    3.4413   -0.9629 H   0  0  0  0  0  0  0  0  0  0  0  0
  1  2  1  0  0  0  0
  1  3  2  0  0  0  0
  1  4  1  0  0  0  0
  2  5  1  0  0  0  0
  2 27  1  0  0  0  0
  2 28  1  0  0  0  0
  4 29  1  0  0  0  0
  5  6  1  0  0  0  0
  6  7  1  0  0  0  0
  6 30  1  0  0  0  0
  6 31  1  0  0  0  0
  7  8  1  0  0  0  0
  7 32  1  0  0  0  0
  7 33  1  0  0  0  0
  8  9  1  0  0  0  0
  8 13  1  0  0  0  0
  9 10  1  0  0  0  0
  9 34  1  0  0  0  0
  9 35  1  0  0  0  0
 10 11  1  0  0  0  0
 10 36  1  0  0  0  0
 10 37  1  0  0  0  0
 11 12  1  0  0  0  0
 12 13  1  0  0  0  0
 12 38  1  0  0  0  0
 12 39  1  0  0  0  0
 13 40  1  0  0  0  0
 13 41  1  0  0  0  0
 14 15  1  0  0  0  0
 14 21  1  0  0  0  0
 14 11  1  0  0  0  0
 14 42  1  0  0  0  0
 15 16  2  0  0  0  0
 15 20  1  0  0  0  0
 16 17  1  0  0  0  0
 16 43  1  0  0  0  0
 17 18  2  0  0  0  0
 17 44  1  0  0  0  0
 18 19  1  0  0  0  0
 18 45  1  0  0  0  0
 19 20  2  0  0  0  0
 19 46  1  0  0  0  0
 20 47  1  0  0  0  0
 21 22  2  0  0  0  0
 21 26  1  0  0  0  0
 22 23  1  0  0  0  0
 22 48  1  0  0  0  0
 23 24  2  0  0  0  0
 23 49  1  0  0  0  0
 24 25  1  0  0  0  0
 24 50  1  0  0  0  0
 25 26  2  0  0  0  0
 25 51  1  0  0  0  0
 26 52  1  0  0  0  0
M  END
>  <Mol_ID>
2039

>  <Formula>
C21H27Cl3N2O3

>  <MolWeight>
461.80968

>  <Cat>
S4849

>  <Name>
Levocetirizine Dihydrochloride

>  <Synonyms>
Xyzal Dihydrochloride, (-)-Cetirizine Dihydrochloride

>  <Target>
Histamine Receptor

>  <Form>
dihydrochloride

>  <CAS>
130018-87-0

>  <URL>
http://selleckchem.com/products/levocetirizine-dihydrochloride.html

$$$$
