S4858 Tryptophol.cdx
 OpenBabel08302519533D

 23 24  0  0  0  0  0  0  0  0999 V2000
   -0.2216   -0.7268   -0.0399 C   0  0  0  0  0  0  0  0  0  0  0  0
   -0.2121    0.6672   -0.0652 C   0  0  0  0  0  0  0  0  0  0  0  0
   -1.5907   -1.1498   -0.0782 C   0  0  0  0  0  0  0  0  0  0  0  0
    1.0145   -1.4071    0.0083 C   0  0  0  0  0  0  0  0  0  0  0  0
   -1.5228    1.0790   -0.1186 N   0  0  0  0  0  0  0  0  0  0  0  0
    0.9704    1.4181   -0.0361 C   0  0  0  0  0  0  0  0  0  0  0  0
   -2.3603   -0.0037   -0.1419 C   0  0  0  0  0  0  0  0  0  0  0  0
   -2.0894   -2.5630   -0.0539 C   0  0  0  0  0  0  0  0  0  0  0  0
    2.2054   -0.6722    0.0273 C   0  0  0  0  0  0  0  0  0  0  0  0
    2.1827    0.7188    0.0064 C   0  0  0  0  0  0  0  0  0  0  0  0
   -2.2883   -3.1565   -1.4484 C   0  0  0  0  0  0  0  0  0  0  0  0
   -1.0664   -3.2326   -2.1766 O   0  0  0  0  0  0  0  0  0  0  0  0
    1.0455   -2.4932    0.0221 H   0  0  0  0  0  0  0  0  0  0  0  0
   -1.8173    2.0450   -0.1420 H   0  0  0  0  0  0  0  0  0  0  0  0
    0.9555    2.5027   -0.0499 H   0  0  0  0  0  0  0  0  0  0  0  0
   -3.4332    0.1329   -0.1927 H   0  0  0  0  0  0  0  0  0  0  0  0
   -1.3832   -3.1826    0.5121 H   0  0  0  0  0  0  0  0  0  0  0  0
   -3.0439   -2.5968    0.4860 H   0  0  0  0  0  0  0  0  0  0  0  0
    3.1577   -1.1966    0.0582 H   0  0  0  0  0  0  0  0  0  0  0  0
    3.1175    1.2734    0.0226 H   0  0  0  0  0  0  0  0  0  0  0  0
   -2.6742   -4.1768   -1.3575 H   0  0  0  0  0  0  0  0  0  0  0  0
   -3.0067   -2.5754   -2.0360 H   0  0  0  0  0  0  0  0  0  0  0  0
   -0.7666   -2.3148   -2.3140 H   0  0  0  0  0  0  0  0  0  0  0  0
  1  2  2  0  0  0  0
  1  3  1  0  0  0  0
  1  4  1  0  0  0  0
  2  5  1  0  0  0  0
  2  6  1  0  0  0  0
  3  7  2  0  0  0  0
  3  8  1  0  0  0  0
  4  9  2  0  0  0  0
  4 13  1  0  0  0  0
  5  7  1  0  0  0  0
  5 14  1  0  0  0  0
  6 10  2  0  0  0  0
  6 15  1  0  0  0  0
  7 16  1  0  0  0  0
  8 11  1  0  0  0  0
  8 17  1  0  0  0  0
  8 18  1  0  0  0  0
  9 10  1  0  0  0  0
  9 19  1  0  0  0  0
 10 20  1  0  0  0  0
 11 12  1  0  0  0  0
 11 21  1  0  0  0  0
 11 22  1  0  0  0  0
 12 23  1  0  0  0  0
M  END
>  <Mol_ID>
2040

>  <Formula>
C10H11NO

>  <MolWeight>
161.20044

>  <Cat>
S4858

>  <Name>
Tryptophol

>  <Synonyms>
Indole-3-ethanol

>  <Target>
Others

>  <Form>
Indole

>  <CAS>
526-55-6

>  <URL>
http://selleckchem.com/products/tryptophol.html

$$$$
