S4853 Ecabet sodium.cdx
 OpenBabel08302520013D

 53 55  0  0  0  0  0  0  0  0999 V2000
    0.9830    7.8403    0.1171 C   0  0  2  0  0  0  0  0  0  0  0  0
   -0.3012    7.0716    0.4527 C   0  0  0  0  0  0  0  0  0  0  0  0
    1.9011    6.8334   -0.6602 C   0  0  2  0  0  0  0  0  0  0  0  0
    1.6971    8.3635    1.3857 C   0  0  0  0  0  0  0  0  0  0  0  0
    0.5328    9.0607   -0.7449 C   0  0  0  0  0  0  0  0  0  0  0  0
   -0.8352    6.2341   -0.5360 C   0  0  0  0  0  0  0  0  0  0  0  0
   -1.0268    7.2217    1.6377 C   0  0  0  0  0  0  0  0  0  0  0  0
    3.3530    7.2774   -0.9003 C   0  0  1  0  0  0  0  0  0  0  0  0
    1.1918    6.2719   -1.9209 C   0  0  0  0  0  0  0  0  0  0  0  0
    3.1332    8.8193    1.1400 C   0  0  0  0  0  0  0  0  0  0  0  0
   -2.1600    5.8795   -0.5105 C   0  0  0  0  0  0  0  0  0  0  0  0
    0.0530    5.4210   -1.4305 C   0  0  0  0  0  0  0  0  0  0  0  0
   -2.2718    6.5826    1.7896 C   0  0  0  0  0  0  0  0  0  0  0  0
    3.9496    7.7395    0.4479 C   0  0  0  0  0  0  0  0  0  0  0  0
    4.1659    6.0544   -1.3436 C   0  0  0  0  0  0  0  0  0  0  0  0
    3.4906    8.3788   -1.9665 C   0  0  0  0  0  0  0  0  0  0  0  0
   -2.8585    5.9046    0.6968 C   0  0  0  0  0  0  0  0  0  0  0  0
   -3.0947    6.7715    3.4059 S   0  0  0  0  0  0  0  0  0  0  0  0
    4.1408    5.0338   -0.4476 O   0  0  0  0  0  0  0  0  0  0  0  0
    4.7858    5.9158   -2.3737 O   0  0  0  0  0  0  0  0  0  0  0  0
   -4.1069    5.0678    0.7246 C   0  0  0  0  0  0  0  0  0  0  0  0
   -4.5078    6.7335    3.1070 O   0  0  0  0  0  0  0  0  0  0  0  0
   -2.6174    8.0801    3.8611 O   0  0  0  0  0  0  0  0  0  0  0  0
   -2.5530    5.6260    4.1462 O   0  5  0  0  0  0  0  0  0  0  0  0
   -5.1072    5.5905   -0.3199 C   0  0  0  0  0  0  0  0  0  0  0  0
   -3.7526    3.5856    0.4725 C   0  0  0  0  0  0  0  0  0  0  0  0
    1.9928    5.9730    0.0261 H   0  0  0  0  0  0  0  0  0  0  0  0
    1.1350    9.1992    1.8233 H   0  0  0  0  0  0  0  0  0  0  0  0
    1.7235    7.5781    2.1524 H   0  0  0  0  0  0  0  0  0  0  0  0
   -0.5415    9.2631   -0.6512 H   0  0  0  0  0  0  0  0  0  0  0  0
    1.0462    9.9838   -0.4590 H   0  0  0  0  0  0  0  0  0  0  0  0
    0.7213    8.9289   -1.8125 H   0  0  0  0  0  0  0  0  0  0  0  0
   -0.6277    7.7818    2.4831 H   0  0  0  0  0  0  0  0  0  0  0  0
    0.7912    7.0527   -2.5707 H   0  0  0  0  0  0  0  0  0  0  0  0
    1.8491    5.6535   -2.5373 H   0  0  0  0  0  0  0  0  0  0  0  0
    3.5945    9.0515    2.1067 H   0  0  0  0  0  0  0  0  0  0  0  0
    3.1491    9.7486    0.5622 H   0  0  0  0  0  0  0  0  0  0  0  0
   -2.5979    5.4314   -1.3942 H   0  0  0  0  0  0  0  0  0  0  0  0
   -0.4947    4.9536   -2.2537 H   0  0  0  0  0  0  0  0  0  0  0  0
    0.4456    4.5897   -0.8189 H   0  0  0  0  0  0  0  0  0  0  0  0
    4.9835    8.0742    0.3114 H   0  0  0  0  0  0  0  0  0  0  0  0
    4.0006    6.8813    1.1366 H   0  0  0  0  0  0  0  0  0  0  0  0
    4.5430    8.5448   -2.2238 H   0  0  0  0  0  0  0  0  0  0  0  0
    3.0886    9.3404   -1.6258 H   0  0  0  0  0  0  0  0  0  0  0  0
    2.9735    8.1188   -2.8949 H   0  0  0  0  0  0  0  0  0  0  0  0
    4.7541    4.3709   -0.8231 H   0  0  0  0  0  0  0  0  0  0  0  0
   -4.5794    5.0849    1.6958 H   0  0  0  0  0  0  0  0  0  0  0  0
   -6.1149    5.5803    0.0911 H   0  0  0  0  0  0  0  0  0  0  0  0
   -5.1048    4.9710   -1.2235 H   0  0  0  0  0  0  0  0  0  0  0  0
   -4.8896    6.6212   -0.6281 H   0  0  0  0  0  0  0  0  0  0  0  0
   -4.6528    2.9620    0.4773 H   0  0  0  0  0  0  0  0  0  0  0  0
   -3.2530    3.4189   -0.4886 H   0  0  0  0  0  0  0  0  0  0  0  0
   -3.0748    3.2170    1.2513 H   0  0  0  0  0  0  0  0  0  0  0  0
  1  2  1  0  0  0  0
  1  3  1  0  0  0  0
  1  4  1  0  0  0  0
  1  5  1  6  0  0  0
  2  6  2  0  0  0  0
  2  7  1  0  0  0  0
  3  8  1  0  0  0  0
  3  9  1  0  0  0  0
  3 27  1  1  0  0  0
  4 10  1  0  0  0  0
  4 28  1  0  0  0  0
  4 29  1  0  0  0  0
  5 30  1  0  0  0  0
  5 31  1  0  0  0  0
  5 32  1  0  0  0  0
  6 11  1  0  0  0  0
  6 12  1  0  0  0  0
  7 13  2  0  0  0  0
  7 33  1  0  0  0  0
  8 14  1  0  0  0  0
  8 16  1  0  0  0  0
  8 15  1  6  0  0  0
  9 12  1  0  0  0  0
  9 34  1  0  0  0  0
  9 35  1  0  0  0  0
 10 14  1  0  0  0  0
 10 36  1  0  0  0  0
 10 37  1  0  0  0  0
 11 17  2  0  0  0  0
 11 38  1  0  0  0  0
 12 39  1  0  0  0  0
 12 40  1  0  0  0  0
 13 18  1  0  0  0  0
 13 17  1  0  0  0  0
 14 41  1  0  0  0  0
 14 42  1  0  0  0  0
 15 19  1  0  0  0  0
 15 20  2  0  0  0  0
 16 43  1  0  0  0  0
 16 44  1  0  0  0  0
 16 45  1  0  0  0  0
 17 21  1  0  0  0  0
 18 22  2  0  0  0  0
 18 23  2  0  0  0  0
 18 24  1  0  0  0  0
 19 46  1  0  0  0  0
 21 25  1  0  0  0  0
 21 26  1  0  0  0  0
 21 47  1  0  0  0  0
 25 48  1  0  0  0  0
 25 49  1  0  0  0  0
 25 50  1  0  0  0  0
 26 51  1  0  0  0  0
 26 52  1  0  0  0  0
 26 53  1  0  0  0  0
M  CHG  1  24  -1
M  END
>  <Mol_ID>
2956

>  <Formula>
C20H27NaO5S

>  <MolWeight>
402.48015

>  <Cat>
S4853

>  <Name>
Ecabet sodium

>  <Synonyms>
TA-2711, TA-2711E

>  <Target>
ROS

>  <Form>
sodium salt

>  <CAS>
86408-72-2

>  <URL>
http://selleckchem.com/products/ecabet-sodium.html

$$$$
