S4856 Iproniazid.cdx
 OpenBabel08302519533D

 26 26  0  0  0  0  0  0  0  0999 V2000
    1.4873   -0.0070    0.0515 C   0  0  0  0  0  0  0  0  0  0  0  0
    2.9683    0.0831   -0.0023 C   0  0  0  0  0  0  0  0  0  0  0  0
    0.7850    1.0476    0.6365 C   0  0  0  0  0  0  0  0  0  0  0  0
    0.7849   -1.0771   -0.5088 C   0  0  0  0  0  0  0  0  0  0  0  0
    3.6687   -1.1175   -0.0105 N   0  0  0  0  0  0  0  0  0  0  0  0
    3.5167    1.1813   -0.0300 O   0  0  0  0  0  0  0  0  0  0  0  0
   -0.5931    0.9792    0.6586 C   0  0  0  0  0  0  0  0  0  0  0  0
   -0.5960   -1.0471   -0.4400 C   0  0  0  0  0  0  0  0  0  0  0  0
    5.0824   -1.0810   -0.0413 N   0  0  0  0  0  0  0  0  0  0  0  0
   -1.2993   -0.0477    0.1377 N   0  0  0  0  0  0  0  0  0  0  0  0
    5.6179   -1.7853   -1.2170 C   0  0  0  0  0  0  0  0  0  0  0  0
    5.1236   -1.1798   -2.5325 C   0  0  0  0  0  0  0  0  0  0  0  0
    7.1470   -1.7425   -1.1707 C   0  0  0  0  0  0  0  0  0  0  0  0
    1.3013    1.9016    1.0621 H   0  0  0  0  0  0  0  0  0  0  0  0
    1.2794   -1.8945   -1.0183 H   0  0  0  0  0  0  0  0  0  0  0  0
    3.2100   -2.0038    0.1759 H   0  0  0  0  0  0  0  0  0  0  0  0
   -1.1894    1.7730    1.1022 H   0  0  0  0  0  0  0  0  0  0  0  0
   -1.1994   -1.8427   -0.8695 H   0  0  0  0  0  0  0  0  0  0  0  0
    5.3594   -0.0885   -0.0803 H   0  0  0  0  0  0  0  0  0  0  0  0
    5.3089   -2.8365   -1.1678 H   0  0  0  0  0  0  0  0  0  0  0  0
    5.4074   -0.1251   -2.6206 H   0  0  0  0  0  0  0  0  0  0  0  0
    5.5496   -1.7178   -3.3863 H   0  0  0  0  0  0  0  0  0  0  0  0
    4.0341   -1.2472   -2.6204 H   0  0  0  0  0  0  0  0  0  0  0  0
    7.5300   -2.2000   -0.2522 H   0  0  0  0  0  0  0  0  0  0  0  0
    7.5713   -2.2965   -2.0163 H   0  0  0  0  0  0  0  0  0  0  0  0
    7.5251   -0.7153   -1.2226 H   0  0  0  0  0  0  0  0  0  0  0  0
  1  2  1  0  0  0  0
  1  3  2  0  0  0  0
  1  4  1  0  0  0  0
  2  5  1  0  0  0  0
  2  6  2  0  0  0  0
  3  7  1  0  0  0  0
  3 14  1  0  0  0  0
  4  8  2  0  0  0  0
  4 15  1  0  0  0  0
  5  9  1  0  0  0  0
  5 16  1  0  0  0  0
  7 10  2  0  0  0  0
  7 17  1  0  0  0  0
  8 10  1  0  0  0  0
  8 18  1  0  0  0  0
  9 11  1  0  0  0  0
  9 19  1  0  0  0  0
 11 12  1  0  0  0  0
 11 13  1  0  0  0  0
 11 20  1  0  0  0  0
 12 21  1  0  0  0  0
 12 22  1  0  0  0  0
 12 23  1  0  0  0  0
 13 24  1  0  0  0  0
 13 25  1  0  0  0  0
 13 26  1  0  0  0  0
M  END
>  <Mol_ID>
2033

>  <Formula>
C9H13N3O

>  <MolWeight>
179.21902

>  <Cat>
S4856

>  <Name>
Iproniazid

>  <Synonyms>
Marsilid, Iprazid

>  <Target>
MAO

>  <Form>
free base

>  <CAS>
54-92-2

>  <URL>
http://selleckchem.com/products/Iproniazid.html

$$$$
