S4861 Oxindole.cdx
 OpenBabel08302519533D

 17 18  0  0  0  0  0  0  0  0999 V2000
   -0.2794   -0.7540   -0.0078 C   0  0  0  0  0  0  0  0  0  0  0  0
   -0.2232    0.6387   -0.0133 C   0  0  0  0  0  0  0  0  0  0  0  0
    1.1141   -1.3073   -0.0192 C   0  0  0  0  0  0  0  0  0  0  0  0
   -1.4947   -1.4113    0.0055 C   0  0  0  0  0  0  0  0  0  0  0  0
    1.0987    1.0528   -0.0179 N   0  0  0  0  0  0  0  0  0  0  0  0
   -1.3532    1.4266   -0.0115 C   0  0  0  0  0  0  0  0  0  0  0  0
    1.9666   -0.0327   -0.0152 C   0  0  0  0  0  0  0  0  0  0  0  0
   -2.6574   -0.6340    0.0098 C   0  0  0  0  0  0  0  0  0  0  0  0
   -2.5875    0.7721   -0.0007 C   0  0  0  0  0  0  0  0  0  0  0  0
    3.1847    0.0287   -0.0117 O   0  0  0  0  0  0  0  0  0  0  0  0
    1.3090   -1.8751   -0.9324 H   0  0  0  0  0  0  0  0  0  0  0  0
    1.3195   -1.8915    0.8811 H   0  0  0  0  0  0  0  0  0  0  0  0
   -1.5518   -2.4950    0.0139 H   0  0  0  0  0  0  0  0  0  0  0  0
    1.4185    2.0092   -0.0162 H   0  0  0  0  0  0  0  0  0  0  0  0
   -1.2959    2.5086   -0.0180 H   0  0  0  0  0  0  0  0  0  0  0  0
   -3.6304   -1.1209    0.0214 H   0  0  0  0  0  0  0  0  0  0  0  0
   -3.5066    1.3541    0.0005 H   0  0  0  0  0  0  0  0  0  0  0  0
  1  2  2  0  0  0  0
  1  3  1  0  0  0  0
  1  4  1  0  0  0  0
  2  5  1  0  0  0  0
  2  6  1  0  0  0  0
  3  7  1  0  0  0  0
  3 11  1  0  0  0  0
  3 12  1  0  0  0  0
  4  8  2  0  0  0  0
  4 13  1  0  0  0  0
  5  7  1  0  0  0  0
  5 14  1  0  0  0  0
  6  9  2  0  0  0  0
  6 15  1  0  0  0  0
  7 10  2  0  0  0  0
  8  9  1  0  0  0  0
  8 16  1  0  0  0  0
  9 17  1  0  0  0  0
M  END
>  <Mol_ID>
2064

>  <Formula>
C8H7NO

>  <MolWeight>
133.14728

>  <Cat>
S4861

>  <Name>
Oxindole

>  <Synonyms>
2-indolone, 2-Oxindole, Indolin-2-one

>  <Target>
Bacterial,HIV

>  <Form>
free base

>  <CAS>
59-48-3

>  <URL>
http://selleckchem.com/products/oxindole.html

$$$$
