S4877 Eperisone hydrochloride.cdx
 OpenBabel08302519533D

 44 45  0  0  0  0  0  0  0  0999 V2000
    1.5888   -0.4946    0.7909 C   0  0  0  0  0  0  0  0  0  0  0  0
    2.7055   -0.3604   -0.1919 C   0  0  0  0  0  0  0  0  0  0  0  0
    1.1019    0.6061    1.5032 C   0  0  0  0  0  0  0  0  0  0  0  0
    1.0633   -1.7688    1.0353 C   0  0  0  0  0  0  0  0  0  0  0  0
    3.7764    0.7160    0.0487 C   0  0  3  0  0  0  0  0  0  0  0  0
    2.7402   -1.1468   -1.1384 O   0  0  0  0  0  0  0  0  0  0  0  0
    0.1610    0.4164    2.5148 C   0  0  0  0  0  0  0  0  0  0  0  0
    0.1208   -1.9538    2.0497 C   0  0  0  0  0  0  0  0  0  0  0  0
    4.5315    0.4158    1.3682 C   0  0  0  0  0  0  0  0  0  0  0  0
    4.7224    0.7779   -1.1521 C   0  0  0  0  0  0  0  0  0  0  0  0
   -0.3058   -0.8701    2.8251 C   0  0  0  0  0  0  0  0  0  0  0  0
    5.6001    1.3691    1.7599 N   0  0  0  0  0  0  0  0  0  0  0  0
   -1.2454   -1.0717    3.9857 C   0  0  0  0  0  0  0  0  0  0  0  0
    5.0777    2.7295    1.9678 C   0  0  0  0  0  0  0  0  0  0  0  0
    6.2747    0.8656    2.9760 C   0  0  0  0  0  0  0  0  0  0  0  0
   -2.7041   -0.9189    3.5942 C   0  0  0  0  0  0  0  0  0  0  0  0
    6.1641    3.7022    2.4350 C   0  0  0  0  0  0  0  0  0  0  0  0
    7.3586    1.8078    3.5076 C   0  0  0  0  0  0  0  0  0  0  0  0
    6.8162    3.2132    3.7191 C   0  0  0  0  0  0  0  0  0  0  0  0
    1.4470    1.6122    1.2965 H   0  0  0  0  0  0  0  0  0  0  0  0
    1.4072   -2.6268    0.4596 H   0  0  0  0  0  0  0  0  0  0  0  0
    3.2674    1.6817    0.1037 H   0  0  0  0  0  0  0  0  0  0  0  0
   -0.1921    1.2773    3.0801 H   0  0  0  0  0  0  0  0  0  0  0  0
   -0.2578   -2.9546    2.2490 H   0  0  0  0  0  0  0  0  0  0  0  0
    3.8123    0.3439    2.1941 H   0  0  0  0  0  0  0  0  0  0  0  0
    4.9760   -0.5851    1.2739 H   0  0  0  0  0  0  0  0  0  0  0  0
    4.1712    1.0822   -2.0501 H   0  0  0  0  0  0  0  0  0  0  0  0
    5.5271    1.5037   -0.9974 H   0  0  0  0  0  0  0  0  0  0  0  0
    5.1760   -0.1982   -1.3610 H   0  0  0  0  0  0  0  0  0  0  0  0
   -1.0796   -2.0645    4.4224 H   0  0  0  0  0  0  0  0  0  0  0  0
   -0.9998   -0.3530    4.7781 H   0  0  0  0  0  0  0  0  0  0  0  0
    4.2601    2.7220    2.7003 H   0  0  0  0  0  0  0  0  0  0  0  0
    4.6754    3.1251    1.0296 H   0  0  0  0  0  0  0  0  0  0  0  0
    6.7489   -0.0985    2.7541 H   0  0  0  0  0  0  0  0  0  0  0  0
    5.5410    0.6899    3.7741 H   0  0  0  0  0  0  0  0  0  0  0  0
   -2.9939   -1.6633    2.8448 H   0  0  0  0  0  0  0  0  0  0  0  0
   -3.3441   -1.0539    4.4718 H   0  0  0  0  0  0  0  0  0  0  0  0
   -2.9039    0.0747    3.1790 H   0  0  0  0  0  0  0  0  0  0  0  0
    5.7294    4.6954    2.5954 H   0  0  0  0  0  0  0  0  0  0  0  0
    6.9276    3.8099    1.6535 H   0  0  0  0  0  0  0  0  0  0  0  0
    8.1988    1.8415    2.8027 H   0  0  0  0  0  0  0  0  0  0  0  0
    7.7514    1.4201    4.4542 H   0  0  0  0  0  0  0  0  0  0  0  0
    7.6231    3.8909    4.0193 H   0  0  0  0  0  0  0  0  0  0  0  0
    6.0788    3.2099    4.5315 H   0  0  0  0  0  0  0  0  0  0  0  0
  1  2  1  0  0  0  0
  1  3  2  0  0  0  0
  1  4  1  0  0  0  0
  2  5  1  0  0  0  0
  2  6  2  0  0  0  0
  3  7  1  0  0  0  0
  3 20  1  0  0  0  0
  4  8  2  0  0  0  0
  4 21  1  0  0  0  0
  5  9  1  0  0  0  0
  5 10  1  0  0  0  0
  5 22  1  0  0  0  0
  7 11  2  0  0  0  0
  7 23  1  0  0  0  0
  8 11  1  0  0  0  0
  8 24  1  0  0  0  0
  9 12  1  0  0  0  0
  9 25  1  0  0  0  0
  9 26  1  0  0  0  0
 10 27  1  0  0  0  0
 10 28  1  0  0  0  0
 10 29  1  0  0  0  0
 11 13  1  0  0  0  0
 12 14  1  0  0  0  0
 12 15  1  0  0  0  0
 13 16  1  0  0  0  0
 13 30  1  0  0  0  0
 13 31  1  0  0  0  0
 14 17  1  0  0  0  0
 14 32  1  0  0  0  0
 14 33  1  0  0  0  0
 15 18  1  0  0  0  0
 15 34  1  0  0  0  0
 15 35  1  0  0  0  0
 16 36  1  0  0  0  0
 16 37  1  0  0  0  0
 16 38  1  0  0  0  0
 17 19  1  0  0  0  0
 17 39  1  0  0  0  0
 17 40  1  0  0  0  0
 18 19  1  0  0  0  0
 18 41  1  0  0  0  0
 18 42  1  0  0  0  0
 19 43  1  0  0  0  0
 19 44  1  0  0  0  0
M  END
>  <Mol_ID>
2025

>  <Formula>
C17H26ClNO

>  <MolWeight>
295.84744

>  <Cat>
S4877

>  <Name>
Eperisone hydrochloride

>  <Synonyms>
N/A

>  <Target>
Others

>  <Form>
hydrochloride

>  <CAS>
56839-43-1

>  <URL>
http://selleckchem.com/products/eperisone-hydrochloride.html

$$$$
