S4886 Menbutone.cdx
 OpenBabel08302519533D

 33 34  0  0  0  0  0  0  0  0999 V2000
   -0.0721   -0.6652   -0.0080 C   0  0  0  0  0  0  0  0  0  0  0  0
   -0.0146    0.7609   -0.0028 C   0  0  0  0  0  0  0  0  0  0  0  0
    1.1590   -1.3887    0.0411 C   0  0  0  0  0  0  0  0  0  0  0  0
   -1.3622   -1.2589   -0.0559 C   0  0  0  0  0  0  0  0  0  0  0  0
    1.2357    1.4252    0.0065 C   0  0  0  0  0  0  0  0  0  0  0  0
   -1.2225    1.4977   -0.0038 C   0  0  0  0  0  0  0  0  0  0  0  0
    1.2234   -2.8897    0.1280 C   0  0  0  0  0  0  0  0  0  0  0  0
    2.3801   -0.6999    0.0044 C   0  0  0  0  0  0  0  0  0  0  0  0
   -2.5378   -0.5017   -0.0843 C   0  0  0  0  0  0  0  0  0  0  0  0
    2.4166    0.6893   -0.0119 C   0  0  0  0  0  0  0  0  0  0  0  0
    1.2006    2.8002    0.0194 O   0  0  0  0  0  0  0  0  0  0  0  0
   -2.4688    0.8789   -0.0444 C   0  0  0  0  0  0  0  0  0  0  0  0
    2.4075   -3.5569    0.8209 C   0  0  0  0  0  0  0  0  0  0  0  0
    0.3713   -3.5981   -0.4029 O   0  0  0  0  0  0  0  0  0  0  0  0
    2.4385    3.4978    0.0581 C   0  0  0  0  0  0  0  0  0  0  0  0
    2.5933   -3.1753    2.2804 C   0  0  0  0  0  0  0  0  0  0  0  0
    1.3977   -3.5088    3.1312 C   0  0  0  0  0  0  0  0  0  0  0  0
    1.1512   -4.8301    3.2459 O   0  0  0  0  0  0  0  0  0  0  0  0
    0.7294   -2.6634    3.7100 O   0  0  0  0  0  0  0  0  0  0  0  0
   -1.4820   -2.3387   -0.0850 H   0  0  0  0  0  0  0  0  0  0  0  0
   -1.1970    2.5863    0.0244 H   0  0  0  0  0  0  0  0  0  0  0  0
    3.3318   -1.2221   -0.0224 H   0  0  0  0  0  0  0  0  0  0  0  0
   -3.5032   -0.9992   -0.1331 H   0  0  0  0  0  0  0  0  0  0  0  0
    3.3910    1.1673   -0.0378 H   0  0  0  0  0  0  0  0  0  0  0  0
   -3.3749    1.4778   -0.0474 H   0  0  0  0  0  0  0  0  0  0  0  0
    2.2525   -4.6408    0.7471 H   0  0  0  0  0  0  0  0  0  0  0  0
    3.3193   -3.3587    0.2480 H   0  0  0  0  0  0  0  0  0  0  0  0
    3.0218    3.2266    0.9445 H   0  0  0  0  0  0  0  0  0  0  0  0
    3.0095    3.3286   -0.8607 H   0  0  0  0  0  0  0  0  0  0  0  0
    2.2185    4.5674    0.1220 H   0  0  0  0  0  0  0  0  0  0  0  0
    3.4646   -3.6890    2.7027 H   0  0  0  0  0  0  0  0  0  0  0  0
    2.7906   -2.1038    2.3895 H   0  0  0  0  0  0  0  0  0  0  0  0
    1.7520   -5.4108    2.7436 H   0  0  0  0  0  0  0  0  0  0  0  0
  1  2  1  0  0  0  0
  1  3  2  0  0  0  0
  1  4  1  0  0  0  0
  2  5  2  0  0  0  0
  2  6  1  0  0  0  0
  3  7  1  0  0  0  0
  3  8  1  0  0  0  0
  4  9  2  0  0  0  0
  4 20  1  0  0  0  0
  5 10  1  0  0  0  0
  5 11  1  0  0  0  0
  6 12  2  0  0  0  0
  6 21  1  0  0  0  0
  7 13  1  0  0  0  0
  7 14  2  0  0  0  0
  8 10  2  0  0  0  0
  8 22  1  0  0  0  0
  9 12  1  0  0  0  0
  9 23  1  0  0  0  0
 10 24  1  0  0  0  0
 11 15  1  0  0  0  0
 12 25  1  0  0  0  0
 13 16  1  0  0  0  0
 13 26  1  0  0  0  0
 13 27  1  0  0  0  0
 15 28  1  0  0  0  0
 15 29  1  0  0  0  0
 15 30  1  0  0  0  0
 16 17  1  0  0  0  0
 16 31  1  0  0  0  0
 16 32  1  0  0  0  0
 17 18  1  0  0  0  0
 17 19  2  0  0  0  0
 18 33  1  0  0  0  0
M  END
>  <Mol_ID>
2071

>  <Formula>
C15H14O4

>  <MolWeight>
258.26926

>  <Cat>
S4886

>  <Name>
Menbutone

>  <Synonyms>
Genabilin, Naftobil, Genabilic acid

>  <Target>
Others

>  <Form>
Organophosphates

>  <CAS>
3562-99-0

>  <URL>
http://selleckchem.com/products/menbutone.html

$$$$
