S4884 Trans-Zeatin.cdx
 OpenBabel08302519533D

 29 30  0  0  0  0  0  0  0  0999 V2000
    1.4899    1.2589   -1.4789 N   0  0  0  0  0  0  0  0  0  0  0  0
    2.1017    0.1857   -1.9355 C   0  0  0  0  0  0  0  0  0  0  0  0
    1.3515   -0.9409   -1.7491 N   0  0  0  0  0  0  0  0  0  0  0  0
    0.1992   -0.5723   -1.1258 C   0  0  0  0  0  0  0  0  0  0  0  0
   -0.8126   -1.3815   -0.7632 N   0  0  0  0  0  0  0  0  0  0  0  0
   -1.7925   -0.6721   -0.1762 C   0  0  0  0  0  0  0  0  0  0  0  0
   -1.8470    0.6584    0.0549 N   0  0  0  0  0  0  0  0  0  0  0  0
   -0.8026    1.4375   -0.3371 C   0  0  0  0  0  0  0  0  0  0  0  0
    0.2915    0.7970   -0.9566 C   0  0  0  0  0  0  0  0  0  0  0  0
   -0.9556    2.7996   -0.1488 N   0  0  0  0  0  0  0  0  0  0  0  0
    0.1820    3.6536    0.0875 C   0  0  0  0  0  0  0  0  0  0  0  0
    0.1790    4.6653   -1.0118 C   0  0  0  0  0  0  0  0  0  0  0  0
    0.0784    6.0039   -0.8685 C   0  0  0  0  0  0  0  0  0  0  0  0
    0.1547    6.9179   -2.0567 C   0  0  0  0  0  0  0  0  0  0  0  0
   -0.0705    6.6493    0.4771 C   0  0  0  0  0  0  0  0  0  0  0  0
   -1.0519    7.6576   -2.1529 O   0  0  0  0  0  0  0  0  0  0  0  0
    3.0744    0.1690   -2.4069 H   0  0  0  0  0  0  0  0  0  0  0  0
    1.5916   -1.8841   -2.0202 H   0  0  0  0  0  0  0  0  0  0  0  0
   -2.6612   -1.2404    0.1476 H   0  0  0  0  0  0  0  0  0  0  0  0
   -1.8133    3.0257    0.3379 H   0  0  0  0  0  0  0  0  0  0  0  0
    0.0919    4.1036    1.0830 H   0  0  0  0  0  0  0  0  0  0  0  0
    1.1503    3.1478    0.0723 H   0  0  0  0  0  0  0  0  0  0  0  0
    0.3159    4.2398   -2.0044 H   0  0  0  0  0  0  0  0  0  0  0  0
    0.9908    7.6157   -1.9459 H   0  0  0  0  0  0  0  0  0  0  0  0
    0.2975    6.3745   -2.9971 H   0  0  0  0  0  0  0  0  0  0  0  0
   -0.9821    6.3003    0.9736 H   0  0  0  0  0  0  0  0  0  0  0  0
    0.7931    6.4156    1.1082 H   0  0  0  0  0  0  0  0  0  0  0  0
   -0.1330    7.7397    0.3993 H   0  0  0  0  0  0  0  0  0  0  0  0
   -1.7697    7.0017   -2.1807 H   0  0  0  0  0  0  0  0  0  0  0  0
  1  2  2  0  0  0  0
  1  9  1  0  0  0  0
  2  3  1  0  0  0  0
  2 17  1  0  0  0  0
  3  4  1  0  0  0  0
  3 18  1  0  0  0  0
  4  5  1  0  0  0  0
  4  9  2  0  0  0  0
  5  6  2  0  0  0  0
  6  7  1  0  0  0  0
  6 19  1  0  0  0  0
  7  8  2  0  0  0  0
  8  9  1  0  0  0  0
  8 10  1  0  0  0  0
 10 11  1  0  0  0  0
 10 20  1  0  0  0  0
 11 12  1  0  0  0  0
 11 21  1  0  0  0  0
 11 22  1  0  0  0  0
 12 13  2  0  0  0  0
 12 23  1  0  0  0  0
 13 14  1  0  0  0  0
 13 15  1  0  0  0  0
 14 16  1  0  0  0  0
 14 24  1  0  0  0  0
 14 25  1  0  0  0  0
 15 26  1  0  0  0  0
 15 27  1  0  0  0  0
 15 28  1  0  0  0  0
 16 29  1  0  0  0  0
M  END
>  <Mol_ID>
2069

>  <Formula>
C10H13N5O

>  <MolWeight>
219.24312

>  <Cat>
S4884

>  <Name>
Trans-Zeatin

>  <Synonyms>
(E)-Zeatin

>  <Target>
ERK,JNK,MMP,p38 MAPK

>  <Form>
Cytokinins

>  <CAS>
1637-39-4

>  <URL>
http://selleckchem.com/products/trans-zeatin.html

$$$$
