S4883 Lynestrenol.cdx
 OpenBabel08302519553D

 49 52  0  0  0  0  0  0  0  0999 V2000
    1.0160    1.4065   -0.4595 C   0  0  2  0  0  0  0  0  0  0  0  0
    1.9453    1.2599    0.7471 C   0  0  1  0  0  0  0  0  0  0  0  0
   -0.1778    0.5265   -0.5723 C   0  0  1  0  0  0  0  0  0  0  0  0
    2.0019    1.5642   -1.6167 C   0  0  0  0  0  0  0  0  0  0  0  0
    2.6244    2.6868    0.5272 C   0  0  1  0  0  0  0  0  0  0  0  0
    1.1758    0.7060    1.9789 C   0  0  0  0  0  0  0  0  0  0  0  0
    3.1323    0.2006    0.6409 C   0  0  0  0  0  0  0  0  0  0  0  0
   -1.1441    0.4972    0.6813 C   0  0  2  0  0  0  0  0  0  0  0  0
   -1.0645    1.0479   -1.7290 C   0  0  0  0  0  0  0  0  0  0  0  0
    3.0567    2.5272   -1.0044 C   0  0  0  0  0  0  0  0  0  0  0  0
    1.7386    3.9044    0.5440 C   0  0  0  0  0  0  0  0  0  0  0  0
    3.7468    2.9071    1.3571 O   0  0  0  0  0  0  0  0  0  0  0  0
   -0.3660    0.5984    2.0208 C   0  0  0  0  0  0  0  0  0  0  0  0
   -1.9927   -0.8033    0.4501 C   0  0  2  0  0  0  0  0  0  0  0  0
   -2.2667    0.1490   -1.9312 C   0  0  0  0  0  0  0  0  0  0  0  0
    1.0252    4.8275    0.2208 C   0  0  0  0  0  0  0  0  0  0  0  0
   -2.1014   -1.0196   -1.0570 C   0  0  0  0  0  0  0  0  0  0  0  0
   -3.3810   -1.3066    0.8711 C   0  0  0  0  0  0  0  0  0  0  0  0
   -1.9929   -2.3047   -1.4544 C   0  0  0  0  0  0  0  0  0  0  0  0
   -3.4365   -2.8541    0.4521 C   0  0  0  0  0  0  0  0  0  0  0  0
   -2.1951   -3.3317   -0.3754 C   0  0  0  0  0  0  0  0  0  0  0  0
    0.4908    2.3598   -0.3899 H   0  0  0  0  0  0  0  0  0  0  0  0
    0.2100   -0.4803   -0.7808 H   0  0  0  0  0  0  0  0  0  0  0  0
    1.5478    1.9816   -2.5182 H   0  0  0  0  0  0  0  0  0  0  0  0
    2.4532    0.6019   -1.8960 H   0  0  0  0  0  0  0  0  0  0  0  0
    1.5799    1.1151    2.9115 H   0  0  0  0  0  0  0  0  0  0  0  0
    1.4407   -0.3666    2.0448 H   0  0  0  0  0  0  0  0  0  0  0  0
    2.7788   -0.7766    0.2965 H   0  0  0  0  0  0  0  0  0  0  0  0
    3.6037    0.0666    1.6271 H   0  0  0  0  0  0  0  0  0  0  0  0
    3.9669    0.4767   -0.0075 H   0  0  0  0  0  0  0  0  0  0  0  0
   -1.8194    1.3647    0.6718 H   0  0  0  0  0  0  0  0  0  0  0  0
   -1.4271    2.0628   -1.4906 H   0  0  0  0  0  0  0  0  0  0  0  0
   -0.5097    1.1375   -2.6612 H   0  0  0  0  0  0  0  0  0  0  0  0
    3.0468    3.4762   -1.5546 H   0  0  0  0  0  0  0  0  0  0  0  0
    4.0711    2.1342   -1.1262 H   0  0  0  0  0  0  0  0  0  0  0  0
    3.4031    3.3063    2.1725 H   0  0  0  0  0  0  0  0  0  0  0  0
   -0.7326    1.4602    2.5906 H   0  0  0  0  0  0  0  0  0  0  0  0
   -0.6194   -0.2685    2.6518 H   0  0  0  0  0  0  0  0  0  0  0  0
   -1.3263   -1.5258    0.9334 H   0  0  0  0  0  0  0  0  0  0  0  0
   -3.1880    0.6824   -1.6513 H   0  0  0  0  0  0  0  0  0  0  0  0
   -2.3696   -0.1097   -2.9896 H   0  0  0  0  0  0  0  0  0  0  0  0
    0.3998    5.5174   -0.2902 H   0  0  0  0  0  0  0  0  0  0  0  0
   -3.6140   -1.1970    1.9327 H   0  0  0  0  0  0  0  0  0  0  0  0
   -4.1896   -0.7895    0.3239 H   0  0  0  0  0  0  0  0  0  0  0  0
   -1.8952   -2.5970   -2.4991 H   0  0  0  0  0  0  0  0  0  0  0  0
   -3.5454   -3.4794    1.3416 H   0  0  0  0  0  0  0  0  0  0  0  0
   -4.3287   -3.0214   -0.1699 H   0  0  0  0  0  0  0  0  0  0  0  0
   -1.2993   -3.4128    0.2624 H   0  0  0  0  0  0  0  0  0  0  0  0
   -2.3448   -4.3254   -0.8060 H   0  0  0  0  0  0  0  0  0  0  0  0
  1  2  1  0  0  0  0
  1  3  1  0  0  0  0
  1  4  1  0  0  0  0
  1 22  1  1  0  0  0
  2  5  1  0  0  0  0
  2  6  1  0  0  0  0
  2  7  1  6  0  0  0
  3  8  1  0  0  0  0
  3  9  1  0  0  0  0
  3 23  1  6  0  0  0
  4 10  1  0  0  0  0
  4 24  1  0  0  0  0
  4 25  1  0  0  0  0
  5 11  1  1  0  0  0
  5 12  1  0  0  0  0
  5 10  1  0  0  0  0
  6 13  1  0  0  0  0
  6 26  1  0  0  0  0
  6 27  1  0  0  0  0
  7 28  1  0  0  0  0
  7 29  1  0  0  0  0
  7 30  1  0  0  0  0
  8 14  1  0  0  0  0
  8 13  1  0  0  0  0
  8 31  1  6  0  0  0
  9 15  1  0  0  0  0
  9 32  1  0  0  0  0
  9 33  1  0  0  0  0
 10 34  1  0  0  0  0
 10 35  1  0  0  0  0
 11 16  3  0  0  0  0
 12 36  1  0  0  0  0
 13 37  1  0  0  0  0
 13 38  1  0  0  0  0
 14 17  1  0  0  0  0
 14 18  1  0  0  0  0
 14 39  1  1  0  0  0
 15 17  1  0  0  0  0
 15 40  1  0  0  0  0
 15 41  1  0  0  0  0
 16 42  1  0  0  0  0
 17 19  2  0  0  0  0
 18 20  1  0  0  0  0
 18 43  1  0  0  0  0
 18 44  1  0  0  0  0
 19 21  1  0  0  0  0
 19 45  1  0  0  0  0
 20 21  1  0  0  0  0
 20 46  1  0  0  0  0
 20 47  1  0  0  0  0
 21 48  1  0  0  0  0
 21 49  1  0  0  0  0
M  END
>  <Mol_ID>
2096

>  <Formula>
C20H28O

>  <MolWeight>
284.43572

>  <Cat>
S4883

>  <Name>
Lynestrenol

>  <Synonyms>
Ethinylestrenol

>  <Target>
Estrogen/progestogen Receptor

>  <Form>
free base

>  <CAS>
52-76-6

>  <URL>
http://selleckchem.com/products/lynestrenol.html

$$$$
