S4890 Bifendate.cdx
 OpenBabel08302520013D

 48 51  0  0  0  0  0  0  0  0999 V2000
    0.8807   -1.4378   -0.2838 C   0  0  0  0  0  0  0  0  0  0  0  0
    0.7045   -2.9091    0.0070 C   0  0  0  0  0  0  0  0  0  0  0  0
   -0.2784   -0.6308   -0.3524 C   0  0  0  0  0  0  0  0  0  0  0  0
    2.0829   -0.6976   -0.4040 C   0  0  0  0  0  0  0  0  0  0  0  0
   -0.2658   -3.2866    0.9666 C   0  0  0  0  0  0  0  0  0  0  0  0
    1.3097   -4.0174   -0.6372 C   0  0  0  0  0  0  0  0  0  0  0  0
   -0.2879    0.7582   -0.3615 C   0  0  0  0  0  0  0  0  0  0  0  0
   -1.5692   -1.1124   -0.3833 O   0  0  0  0  0  0  0  0  0  0  0  0
    2.0583    0.7322   -0.4969 C   0  0  0  0  0  0  0  0  0  0  0  0
    3.4454   -1.2985   -0.3147 C   0  0  0  0  0  0  0  0  0  0  0  0
   -0.7351   -4.5789    1.1660 C   0  0  0  0  0  0  0  0  0  0  0  0
   -0.9165   -2.4131    1.8112 O   0  0  0  0  0  0  0  0  0  0  0  0
    0.8782   -5.3529   -0.3574 C   0  0  0  0  0  0  0  0  0  0  0  0
    2.3228   -3.9000   -1.7233 C   0  0  0  0  0  0  0  0  0  0  0  0
    0.8808    1.4748   -0.4247 C   0  0  0  0  0  0  0  0  0  0  0  0
   -1.5513    1.2647   -0.2808 O   0  0  0  0  0  0  0  0  0  0  0  0
   -2.3245    0.0724   -0.1109 C   0  0  0  0  0  0  0  0  0  0  0  0
    4.3151   -0.5579   -1.0503 O   0  0  0  0  0  0  0  0  0  0  0  0
    3.7191   -2.2742    0.3641 O   0  0  0  0  0  0  0  0  0  0  0  0
   -0.1811   -5.6441    0.5028 C   0  0  0  0  0  0  0  0  0  0  0  0
   -1.7786   -4.6179    2.0435 O   0  0  0  0  0  0  0  0  0  0  0  0
   -1.9970   -3.2244    2.2846 C   0  0  0  0  0  0  0  0  0  0  0  0
    3.1275   -4.9937   -1.7144 O   0  0  0  0  0  0  0  0  0  0  0  0
    2.3616   -2.9771   -2.5229 O   0  0  0  0  0  0  0  0  0  0  0  0
    1.0500    2.8268   -0.4169 O   0  0  0  0  0  0  0  0  0  0  0  0
   -0.5370   -6.9584    0.5607 O   0  0  0  0  0  0  0  0  0  0  0  0
    4.0394   -5.1659   -2.8032 C   0  0  0  0  0  0  0  0  0  0  0  0
   -0.0873    3.6212   -0.1016 C   0  0  0  0  0  0  0  0  0  0  0  0
   -1.7581   -7.2726    1.2206 C   0  0  0  0  0  0  0  0  0  0  0  0
    5.7081   -0.8653   -0.9485 C   0  0  0  0  0  0  0  0  0  0  0  0
    2.9914    1.2908   -0.5725 H   0  0  0  0  0  0  0  0  0  0  0  0
    1.3424   -6.1970   -0.8690 H   0  0  0  0  0  0  0  0  0  0  0  0
   -3.1850    0.1099   -0.7853 H   0  0  0  0  0  0  0  0  0  0  0  0
   -2.6963    0.0277    0.9223 H   0  0  0  0  0  0  0  0  0  0  0  0
   -2.1194   -3.0661    3.3602 H   0  0  0  0  0  0  0  0  0  0  0  0
   -2.9234   -2.9121    1.7821 H   0  0  0  0  0  0  0  0  0  0  0  0
    3.8803   -4.4598   -3.6216 H   0  0  0  0  0  0  0  0  0  0  0  0
    5.0618   -5.0773   -2.4264 H   0  0  0  0  0  0  0  0  0  0  0  0
    3.9054   -6.1813   -3.1915 H   0  0  0  0  0  0  0  0  0  0  0  0
   -0.8256    3.5843   -0.9083 H   0  0  0  0  0  0  0  0  0  0  0  0
   -0.5248    3.3351    0.8613 H   0  0  0  0  0  0  0  0  0  0  0  0
    0.2468    4.6594   -0.0101 H   0  0  0  0  0  0  0  0  0  0  0  0
   -1.6720   -7.1124    2.2996 H   0  0  0  0  0  0  0  0  0  0  0  0
   -2.6017   -6.7177    0.7952 H   0  0  0  0  0  0  0  0  0  0  0  0
   -1.9584   -8.3370    1.0626 H   0  0  0  0  0  0  0  0  0  0  0  0
    5.9388   -1.5688   -0.1452 H   0  0  0  0  0  0  0  0  0  0  0  0
    6.0547   -1.2645   -1.9051 H   0  0  0  0  0  0  0  0  0  0  0  0
    6.2456    0.0689   -0.7533 H   0  0  0  0  0  0  0  0  0  0  0  0
  1  2  1  0  0  0  0
  1  3  1  0  0  0  0
  1  4  2  0  0  0  0
  2  5  1  0  0  0  0
  2  6  2  0  0  0  0
  3  7  2  0  0  0  0
  3  8  1  0  0  0  0
  4  9  1  0  0  0  0
  4 10  1  0  0  0  0
  5 11  2  0  0  0  0
  5 12  1  0  0  0  0
  6 13  1  0  0  0  0
  6 14  1  0  0  0  0
  7 15  1  0  0  0  0
  7 16  1  0  0  0  0
  8 17  1  0  0  0  0
  9 15  2  0  0  0  0
  9 31  1  0  0  0  0
 10 18  1  0  0  0  0
 10 19  2  0  0  0  0
 11 20  1  0  0  0  0
 11 21  1  0  0  0  0
 12 22  1  0  0  0  0
 13 20  2  0  0  0  0
 13 32  1  0  0  0  0
 14 23  1  0  0  0  0
 14 24  2  0  0  0  0
 15 25  1  0  0  0  0
 16 17  1  0  0  0  0
 17 33  1  0  0  0  0
 17 34  1  0  0  0  0
 18 30  1  0  0  0  0
 20 26  1  0  0  0  0
 21 22  1  0  0  0  0
 22 35  1  0  0  0  0
 22 36  1  0  0  0  0
 23 27  1  0  0  0  0
 25 28  1  0  0  0  0
 26 29  1  0  0  0  0
 27 37  1  0  0  0  0
 27 38  1  0  0  0  0
 27 39  1  0  0  0  0
 28 40  1  0  0  0  0
 28 41  1  0  0  0  0
 28 42  1  0  0  0  0
 29 43  1  0  0  0  0
 29 44  1  0  0  0  0
 29 45  1  0  0  0  0
 30 46  1  0  0  0  0
 30 47  1  0  0  0  0
 30 48  1  0  0  0  0
M  END
>  <Mol_ID>
2871

>  <Formula>
C20H18O10

>  <MolWeight>
418.35092

>  <Cat>
S4890

>  <Name>
Bifendate

>  <Synonyms>
N/A

>  <Target>
Reverse Transcriptase

>  <Form>
free base

>  <CAS>
73536-69-3

>  <URL>
http://selleckchem.com/products/bifendate.html

$$$$
