S49076.cdx
 OpenBabel08302520433D

 53 57  0  0  0  0  0  0  0  0999 V2000
    2.7705   -0.7350    0.0020 C   0  0  0  0  0  0  0  0  0  0  0  0
    2.9751    0.6563    0.1321 C   0  0  0  0  0  0  0  0  0  0  0  0
    1.9071    1.5402    0.2037 C   0  0  0  0  0  0  0  0  0  0  0  0
    0.6399    1.0023    0.1542 C   0  0  0  0  0  0  0  0  0  0  0  0
    0.3765   -0.3704    0.0668 C   0  0  0  0  0  0  0  0  0  0  0  0
    1.4450   -1.2574   -0.0112 C   0  0  0  0  0  0  0  0  0  0  0  0
   -0.5292    1.7406    0.2050 N   0  0  0  0  0  0  0  0  0  0  0  0
   -1.6447    0.9337    0.1678 C   0  0  0  0  0  0  0  0  0  0  0  0
   -1.1023   -0.4815    0.0731 C   0  0  0  0  0  0  0  0  0  0  0  0
    3.9892   -1.6278   -0.1352 C   0  0  0  0  0  0  0  0  0  0  0  0
    4.5141   -2.0591    1.1455 N   0  0  0  0  0  0  0  0  0  0  0  0
   -1.8659   -1.5868    0.0139 C   0  0  0  0  0  0  0  0  0  0  0  0
   -2.7909    1.3304    0.2373 O   0  0  0  0  0  0  0  0  0  0  0  0
   -3.2851   -1.5149    0.0088 C   0  0  0  0  0  0  0  0  0  0  0  0
    5.4039   -1.2938    1.8620 C   0  0  0  0  0  0  0  0  0  0  0  0
    5.8444   -1.9709    3.1335 C   0  0  0  0  0  0  0  0  0  0  0  0
    5.0104   -3.5668    3.1648 S   0  0  0  0  0  0  0  0  0  0  0  0
    4.2793   -3.3237    1.5969 C   0  0  0  0  0  0  0  0  0  0  0  0
    5.8349   -0.1983    1.5166 O   0  0  0  0  0  0  0  0  0  0  0  0
    3.6791   -4.2109    1.0125 O   0  0  0  0  0  0  0  0  0  0  0  0
   -4.2480   -1.5680   -0.9823 C   0  0  0  0  0  0  0  0  0  0  0  0
   -5.5317   -1.3522   -0.3844 C   0  0  0  0  0  0  0  0  0  0  0  0
   -5.2905   -1.1612    0.9653 C   0  0  0  0  0  0  0  0  0  0  0  0
   -3.9441   -1.2934    1.1951 N   0  0  0  0  0  0  0  0  0  0  0  0
   -6.8736   -1.3973   -1.0627 C   0  0  0  0  0  0  0  0  0  0  0  0
   -7.2364   -0.1326   -1.7249 N   0  0  0  0  0  0  0  0  0  0  0  0
   -7.4877    0.9818   -0.7825 C   0  0  0  0  0  0  0  0  0  0  0  0
   -8.7704    0.8115    0.0488 C   0  0  0  0  0  0  0  0  0  0  0  0
   -9.9206    0.6857   -0.7982 O   0  0  0  0  0  0  0  0  0  0  0  0
   -9.7714   -0.4047   -1.7148 C   0  0  0  0  0  0  0  0  0  0  0  0
   -8.4684   -0.3048   -2.5345 C   0  0  0  0  0  0  0  0  0  0  0  0
    3.9869    1.0608    0.1702 H   0  0  0  0  0  0  0  0  0  0  0  0
    2.0695    2.6077    0.2938 H   0  0  0  0  0  0  0  0  0  0  0  0
    1.2756   -2.3272   -0.1027 H   0  0  0  0  0  0  0  0  0  0  0  0
   -0.5981    2.7453    0.2714 H   0  0  0  0  0  0  0  0  0  0  0  0
    3.7455   -2.4917   -0.7631 H   0  0  0  0  0  0  0  0  0  0  0  0
    4.7761   -1.0753   -0.6681 H   0  0  0  0  0  0  0  0  0  0  0  0
   -1.4142   -2.5724   -0.0603 H   0  0  0  0  0  0  0  0  0  0  0  0
    5.5549   -1.3679    3.9977 H   0  0  0  0  0  0  0  0  0  0  0  0
    6.9277   -2.1176    3.1151 H   0  0  0  0  0  0  0  0  0  0  0  0
   -4.0573   -1.7159   -2.0372 H   0  0  0  0  0  0  0  0  0  0  0  0
   -5.9623   -0.9377    1.7827 H   0  0  0  0  0  0  0  0  0  0  0  0
   -3.4990   -1.1815    2.0956 H   0  0  0  0  0  0  0  0  0  0  0  0
   -6.8124   -2.1875   -1.8224 H   0  0  0  0  0  0  0  0  0  0  0  0
   -7.6331   -1.7227   -0.3430 H   0  0  0  0  0  0  0  0  0  0  0  0
   -7.5978    1.8954   -1.3841 H   0  0  0  0  0  0  0  0  0  0  0  0
   -6.6274    1.1619   -0.1312 H   0  0  0  0  0  0  0  0  0  0  0  0
   -8.7162   -0.0543    0.7179 H   0  0  0  0  0  0  0  0  0  0  0  0
   -8.9246    1.6957    0.6757 H   0  0  0  0  0  0  0  0  0  0  0  0
  -10.6305   -0.3726   -2.3940 H   0  0  0  0  0  0  0  0  0  0  0  0
   -9.8301   -1.3485   -1.1616 H   0  0  0  0  0  0  0  0  0  0  0  0
   -8.5496    0.5667   -3.1974 H   0  0  0  0  0  0  0  0  0  0  0  0
   -8.3783   -1.1753   -3.1952 H   0  0  0  0  0  0  0  0  0  0  0  0
  1  2  2  0  0  0  0
  1 10  1  0  0  0  0
  2  3  1  0  0  0  0
  2 32  1  0  0  0  0
  3  4  2  0  0  0  0
  3 33  1  0  0  0  0
  4  5  1  0  0  0  0
  4  7  1  0  0  0  0
  5  6  2  0  0  0  0
  6  1  1  0  0  0  0
  6 34  1  0  0  0  0
  7  8  1  0  0  0  0
  7 35  1  0  0  0  0
  8  9  1  0  0  0  0
  8 13  2  0  0  0  0
  9  5  1  0  0  0  0
  9 12  2  0  0  0  0
 10 11  1  0  0  0  0
 10 36  1  0  0  0  0
 10 37  1  0  0  0  0
 11 15  1  0  0  0  0
 12 14  1  0  0  0  0
 12 38  1  0  0  0  0
 14 21  2  0  0  0  0
 15 16  1  0  0  0  0
 15 19  2  0  0  0  0
 16 17  1  0  0  0  0
 16 39  1  0  0  0  0
 16 40  1  0  0  0  0
 17 18  1  0  0  0  0
 18 11  1  0  0  0  0
 18 20  2  0  0  0  0
 21 22  1  0  0  0  0
 21 41  1  0  0  0  0
 22 23  2  0  0  0  0
 22 25  1  0  0  0  0
 23 24  1  0  0  0  0
 23 42  1  0  0  0  0
 24 14  1  0  0  0  0
 24 43  1  0  0  0  0
 25 26  1  0  0  0  0
 25 44  1  0  0  0  0
 25 45  1  0  0  0  0
 26 27  1  0  0  0  0
 27 28  1  0  0  0  0
 27 46  1  0  0  0  0
 27 47  1  0  0  0  0
 28 29  1  0  0  0  0
 28 48  1  0  0  0  0
 28 49  1  0  0  0  0
 29 30  1  0  0  0  0
 30 31  1  0  0  0  0
 30 50  1  0  0  0  0
 30 51  1  0  0  0  0
 31 26  1  0  0  0  0
 31 52  1  0  0  0  0
 31 53  1  0  0  0  0
M  END
>  <Mol_ID>
4096

>  <Formula>
C22H22N4O4S

>  <MolWeight>
438.49948

>  <Cat>
S8404

>  <Name>
S49076

>  <Synonyms>
N/A

>  <Target>
Axl,c-Met,FGFR,Mertk

>  <Form>
free base

>  <CAS>
1265965-22-7

>  <URL>
http://selleckchem.com/products/s49076.html

$$$$
