S4931 Propiverine hydrochloride.cdx
 OpenBabel08302519533D

 56 58  0  0  0  0  0  0  0  0999 V2000
    0.4669    0.3445    0.0430 C   0  0  0  0  0  0  0  0  0  0  0  0
   -0.2610   -0.0244    1.3596 C   0  0  0  0  0  0  0  0  0  0  0  0
   -0.1831    1.4171   -0.8804 C   0  0  0  0  0  0  0  0  0  0  0  0
    0.5708   -0.9473   -0.8992 C   0  0  0  0  0  0  0  0  0  0  0  0
    1.7943    0.8676    0.3319 O   0  0  0  0  0  0  0  0  0  0  0  0
   -0.1051   -1.3278    1.8884 C   0  0  0  0  0  0  0  0  0  0  0  0
   -0.8048    0.9586    2.2045 C   0  0  0  0  0  0  0  0  0  0  0  0
    0.6440    2.2748   -1.6508 C   0  0  0  0  0  0  0  0  0  0  0  0
   -1.5544    1.3917   -1.1916 C   0  0  0  0  0  0  0  0  0  0  0  0
   -0.6790   -1.3850   -1.2497 O   0  0  0  0  0  0  0  0  0  0  0  0
    1.6214   -1.4928   -1.2041 O   0  0  0  0  0  0  0  0  0  0  0  0
    2.3973    0.8019    1.6193 C   0  0  0  0  0  0  0  0  0  0  0  0
   -0.3963   -1.6247    3.2175 C   0  0  0  0  0  0  0  0  0  0  0  0
   -1.0769    0.6622    3.5472 C   0  0  0  0  0  0  0  0  0  0  0  0
    0.1368    3.0044   -2.7208 C   0  0  0  0  0  0  0  0  0  0  0  0
   -2.0523    2.1110   -2.2835 C   0  0  0  0  0  0  0  0  0  0  0  0
   -1.0706   -2.6046   -1.9421 C   0  0  0  0  0  0  0  0  0  0  0  0
    3.5263   -0.2151    1.6024 C   0  0  0  0  0  0  0  0  0  0  0  0
   -0.8506   -0.6174    4.0567 C   0  0  0  0  0  0  0  0  0  0  0  0
   -1.2045    2.9021   -3.0587 C   0  0  0  0  0  0  0  0  0  0  0  0
   -1.1397   -3.7899   -0.9930 C   0  0  0  0  0  0  0  0  0  0  0  0
   -0.3463   -2.9969   -3.2242 C   0  0  0  0  0  0  0  0  0  0  0  0
    4.2416   -0.2935    2.9426 C   0  0  0  0  0  0  0  0  0  0  0  0
    0.2520   -4.3294   -0.7105 C   0  0  0  0  0  0  0  0  0  0  0  0
    0.9812   -3.7204   -2.9985 C   0  0  0  0  0  0  0  0  0  0  0  0
    0.9848   -4.7245   -1.9185 N   0  0  0  0  0  0  0  0  0  0  0  0
    2.3834   -4.9885   -1.5377 C   0  0  0  0  0  0  0  0  0  0  0  0
    0.3526   -2.1185    1.3038 H   0  0  0  0  0  0  0  0  0  0  0  0
   -0.9044    1.9870    1.8636 H   0  0  0  0  0  0  0  0  0  0  0  0
    1.7157    2.3251   -1.4586 H   0  0  0  0  0  0  0  0  0  0  0  0
   -2.2323    0.7349   -0.6494 H   0  0  0  0  0  0  0  0  0  0  0  0
    2.8137    1.7958    1.8200 H   0  0  0  0  0  0  0  0  0  0  0  0
    1.7269    0.6079    2.4566 H   0  0  0  0  0  0  0  0  0  0  0  0
   -0.1992   -2.6210    3.6032 H   0  0  0  0  0  0  0  0  0  0  0  0
   -1.4065    1.4511    4.2190 H   0  0  0  0  0  0  0  0  0  0  0  0
    0.8079    3.6178   -3.3206 H   0  0  0  0  0  0  0  0  0  0  0  0
   -3.0997    2.0197   -2.5588 H   0  0  0  0  0  0  0  0  0  0  0  0
   -2.1044   -2.3799   -2.2401 H   0  0  0  0  0  0  0  0  0  0  0  0
    3.1370   -1.2021    1.3317 H   0  0  0  0  0  0  0  0  0  0  0  0
    4.2402    0.0622    0.8188 H   0  0  0  0  0  0  0  0  0  0  0  0
   -0.9967   -0.8246    5.1134 H   0  0  0  0  0  0  0  0  0  0  0  0
   -1.5831    3.4124   -3.9386 H   0  0  0  0  0  0  0  0  0  0  0  0
   -1.7522   -4.5839   -1.4403 H   0  0  0  0  0  0  0  0  0  0  0  0
   -1.6254   -3.5000   -0.0545 H   0  0  0  0  0  0  0  0  0  0  0  0
   -1.0018   -3.6904   -3.7733 H   0  0  0  0  0  0  0  0  0  0  0  0
   -0.1965   -2.1277   -3.8729 H   0  0  0  0  0  0  0  0  0  0  0  0
    3.5897   -0.7217    3.7110 H   0  0  0  0  0  0  0  0  0  0  0  0
    5.1287   -0.9279    2.8591 H   0  0  0  0  0  0  0  0  0  0  0  0
    4.5638    0.6966    3.2814 H   0  0  0  0  0  0  0  0  0  0  0  0
    0.1481   -5.2029   -0.0549 H   0  0  0  0  0  0  0  0  0  0  0  0
    0.8186   -3.5907   -0.1408 H   0  0  0  0  0  0  0  0  0  0  0  0
    1.7739   -2.9812   -2.8684 H   0  0  0  0  0  0  0  0  0  0  0  0
    1.2370   -4.2391   -3.9328 H   0  0  0  0  0  0  0  0  0  0  0  0
    2.9610   -5.3486   -2.3946 H   0  0  0  0  0  0  0  0  0  0  0  0
    2.8755   -4.0860   -1.1495 H   0  0  0  0  0  0  0  0  0  0  0  0
    2.4361   -5.7577   -0.7599 H   0  0  0  0  0  0  0  0  0  0  0  0
  1  2  1  0  0  0  0
  1  3  1  0  0  0  0
  1  4  1  0  0  0  0
  1  5  1  0  0  0  0
  2  6  2  0  0  0  0
  2  7  1  0  0  0  0
  3  8  2  0  0  0  0
  3  9  1  0  0  0  0
  4 10  1  0  0  0  0
  4 11  2  0  0  0  0
  5 12  1  0  0  0  0
  6 13  1  0  0  0  0
  6 28  1  0  0  0  0
  7 14  2  0  0  0  0
  7 29  1  0  0  0  0
  8 15  1  0  0  0  0
  8 30  1  0  0  0  0
  9 16  2  0  0  0  0
  9 31  1  0  0  0  0
 10 17  1  0  0  0  0
 12 18  1  0  0  0  0
 12 32  1  0  0  0  0
 12 33  1  0  0  0  0
 13 19  2  0  0  0  0
 13 34  1  0  0  0  0
 14 19  1  0  0  0  0
 14 35  1  0  0  0  0
 15 20  2  0  0  0  0
 15 36  1  0  0  0  0
 16 20  1  0  0  0  0
 16 37  1  0  0  0  0
 17 21  1  0  0  0  0
 17 22  1  0  0  0  0
 17 38  1  0  0  0  0
 18 23  1  0  0  0  0
 18 39  1  0  0  0  0
 18 40  1  0  0  0  0
 19 41  1  0  0  0  0
 20 42  1  0  0  0  0
 21 24  1  0  0  0  0
 21 43  1  0  0  0  0
 21 44  1  0  0  0  0
 22 25  1  0  0  0  0
 22 45  1  0  0  0  0
 22 46  1  0  0  0  0
 23 47  1  0  0  0  0
 23 48  1  0  0  0  0
 23 49  1  0  0  0  0
 24 26  1  0  0  0  0
 24 50  1  0  0  0  0
 24 51  1  0  0  0  0
 25 26  1  0  0  0  0
 25 52  1  0  0  0  0
 25 53  1  0  0  0  0
 26 27  1  0  0  0  0
 27 54  1  0  0  0  0
 27 55  1  0  0  0  0
 27 56  1  0  0  0  0
M  END
>  <Mol_ID>
2034

>  <Formula>
C23H30ClNO3

>  <MolWeight>
403.9422

>  <Cat>
S4931

>  <Name>
Propiverine hydrochloride

>  <Synonyms>
N/A

>  <Target>
AChR,Calcium Channel

>  <Form>
HCl

>  <CAS>
54556-98-8

>  <URL>
http://selleckchem.com/products/propiverine-hydrochloride.html

$$$$
