S4937 4'-Hydroxychalcone.cdx
 OpenBabel08302519553D

 29 30  0  0  0  0  0  0  0  0999 V2000
   -1.9600    0.0423   -0.4092 C   0  0  0  0  0  0  0  0  0  0  0  0
   -3.3920    0.0817   -0.0023 C   0  0  0  0  0  0  0  0  0  0  0  0
   -1.1325   -0.9359    0.1581 C   0  0  0  0  0  0  0  0  0  0  0  0
   -1.4338    0.9249   -1.3640 C   0  0  0  0  0  0  0  0  0  0  0  0
   -4.0697    1.4046   -0.0377 C   0  0  0  0  0  0  0  0  0  0  0  0
   -3.9647   -0.9363    0.3684 O   0  0  0  0  0  0  0  0  0  0  0  0
    0.2146   -1.0167   -0.2046 C   0  0  0  0  0  0  0  0  0  0  0  0
   -0.0876    0.8417   -1.7254 C   0  0  0  0  0  0  0  0  0  0  0  0
   -5.4086    1.4895   -0.0534 C   0  0  0  0  0  0  0  0  0  0  0  0
    0.7244   -0.1246   -1.1439 C   0  0  0  0  0  0  0  0  0  0  0  0
   -6.1392    2.7650   -0.1397 C   0  0  0  0  0  0  0  0  0  0  0  0
    2.0301   -0.1702   -1.5319 O   0  0  0  0  0  0  0  0  0  0  0  0
   -5.6079    3.8840   -0.7988 C   0  0  0  0  0  0  0  0  0  0  0  0
   -7.4310    2.8564    0.3943 C   0  0  0  0  0  0  0  0  0  0  0  0
   -6.3326    5.0741   -0.8905 C   0  0  0  0  0  0  0  0  0  0  0  0
   -8.1592    4.0469    0.2980 C   0  0  0  0  0  0  0  0  0  0  0  0
   -7.6079    5.1563   -0.3401 C   0  0  0  0  0  0  0  0  0  0  0  0
   -1.5371   -1.6363    0.8864 H   0  0  0  0  0  0  0  0  0  0  0  0
   -2.0569    1.6659   -1.8566 H   0  0  0  0  0  0  0  0  0  0  0  0
   -3.4390    2.2840   -0.0480 H   0  0  0  0  0  0  0  0  0  0  0  0
    0.8411   -1.7798    0.2485 H   0  0  0  0  0  0  0  0  0  0  0  0
    0.3246    1.5198   -2.4683 H   0  0  0  0  0  0  0  0  0  0  0  0
   -6.0151    0.5859   -0.0095 H   0  0  0  0  0  0  0  0  0  0  0  0
    2.4689   -0.9031   -1.0691 H   0  0  0  0  0  0  0  0  0  0  0  0
   -4.6258    3.8463   -1.2619 H   0  0  0  0  0  0  0  0  0  0  0  0
   -7.8839    2.0038    0.8957 H   0  0  0  0  0  0  0  0  0  0  0  0
   -5.9010    5.9324   -1.3987 H   0  0  0  0  0  0  0  0  0  0  0  0
   -9.1593    4.1073    0.7199 H   0  0  0  0  0  0  0  0  0  0  0  0
   -8.1737    6.0812   -0.4154 H   0  0  0  0  0  0  0  0  0  0  0  0
  1  2  1  0  0  0  0
  1  3  2  0  0  0  0
  1  4  1  0  0  0  0
  2  5  1  0  0  0  0
  2  6  2  0  0  0  0
  3  7  1  0  0  0  0
  3 18  1  0  0  0  0
  4  8  2  0  0  0  0
  4 19  1  0  0  0  0
  5  9  2  0  0  0  0
  5 20  1  0  0  0  0
  7 10  2  0  0  0  0
  7 21  1  0  0  0  0
  8 10  1  0  0  0  0
  8 22  1  0  0  0  0
  9 11  1  0  0  0  0
  9 23  1  0  0  0  0
 10 12  1  0  0  0  0
 11 13  2  0  0  0  0
 11 14  1  0  0  0  0
 12 24  1  0  0  0  0
 13 15  1  0  0  0  0
 13 25  1  0  0  0  0
 14 16  2  0  0  0  0
 14 26  1  0  0  0  0
 15 17  2  0  0  0  0
 15 27  1  0  0  0  0
 16 17  1  0  0  0  0
 16 28  1  0  0  0  0
 17 29  1  0  0  0  0
M  END
>  <Mol_ID>
2100

>  <Formula>
C15H12O2

>  <MolWeight>
224.25458

>  <Cat>
S4937

>  <Name>
4'-Hydroxychalcone

>  <Synonyms>
P-Cinnamoylphenol

>  <Target>
NF-¦ÊB

>  <Form>
free base

>  <CAS>
2657-25-2

>  <URL>
http://selleckchem.com/products/hydroxychalcone.html

$$$$
