S4959 Skatole.cdx
 OpenBabel08302519553D

 19 20  0  0  0  0  0  0  0  0999 V2000
    0.2055   -0.4475   -0.0010 C   0  0  0  0  0  0  0  0  0  0  0  0
   -0.2801    0.8597    0.0079 C   0  0  0  0  0  0  0  0  0  0  0  0
    1.6351   -0.3761    0.0063 C   0  0  0  0  0  0  0  0  0  0  0  0
   -0.7226   -1.5095   -0.0130 C   0  0  0  0  0  0  0  0  0  0  0  0
   -1.6481    1.1605    0.0200 C   0  0  0  0  0  0  0  0  0  0  0  0
    0.8119    1.6958   -0.0016 N   0  0  0  0  0  0  0  0  0  0  0  0
    1.9686    0.9633   -0.0114 C   0  0  0  0  0  0  0  0  0  0  0  0
    2.5766   -1.5249    0.0250 C   0  0  0  0  0  0  0  0  0  0  0  0
   -2.0931   -1.2273   -0.0185 C   0  0  0  0  0  0  0  0  0  0  0  0
   -2.5464    0.0892    0.0033 C   0  0  0  0  0  0  0  0  0  0  0  0
   -0.3781   -2.5392   -0.0257 H   0  0  0  0  0  0  0  0  0  0  0  0
   -2.0045    2.1849    0.0377 H   0  0  0  0  0  0  0  0  0  0  0  0
    0.7606    2.7040   -0.0077 H   0  0  0  0  0  0  0  0  0  0  0  0
    2.9318    1.4567   -0.0263 H   0  0  0  0  0  0  0  0  0  0  0  0
    2.4348   -2.1178    0.9346 H   0  0  0  0  0  0  0  0  0  0  0  0
    2.4096   -2.1726   -0.8411 H   0  0  0  0  0  0  0  0  0  0  0  0
    3.6174   -1.1866    0.0010 H   0  0  0  0  0  0  0  0  0  0  0  0
   -2.8084   -2.0456   -0.0396 H   0  0  0  0  0  0  0  0  0  0  0  0
   -3.6157    0.2887    0.0045 H   0  0  0  0  0  0  0  0  0  0  0  0
  1  2  2  0  0  0  0
  1  3  1  0  0  0  0
  1  4  1  0  0  0  0
  2  5  1  0  0  0  0
  2  6  1  0  0  0  0
  3  7  2  0  0  0  0
  3  8  1  0  0  0  0
  4  9  2  0  0  0  0
  4 11  1  0  0  0  0
  5 10  2  0  0  0  0
  5 12  1  0  0  0  0
  6  7  1  0  0  0  0
  6 13  1  0  0  0  0
  7 14  1  0  0  0  0
  8 15  1  0  0  0  0
  8 16  1  0  0  0  0
  8 17  1  0  0  0  0
  9 10  1  0  0  0  0
  9 18  1  0  0  0  0
 10 19  1  0  0  0  0
M  END
>  <Mol_ID>
2083

>  <Formula>
C9H9N

>  <MolWeight>
131.17446

>  <Cat>
S4959

>  <Name>
Skatole

>  <Synonyms>
3-methylindole, Scatole

>  <Target>
Bacterial

>  <Form>
Indoles

>  <CAS>
83-34-1

>  <URL>
http://selleckchem.com/products/skatole.html

$$$$
