S4958 Glycocholic acid.cdx
 OpenBabel08302519553D

 76 79  0  0  0  0  0  0  0  0999 V2000
   -0.4785    0.1634   -0.3089 C   0  0  3  0  0  0  0  0  0  0  0  0
   -1.7148   -0.7063   -0.6830 C   0  0  3  0  0  0  0  0  0  0  0  0
    0.8950   -0.5817   -0.1998 C   0  0  3  0  0  0  0  0  0  0  0  0
   -0.4364    1.4792   -1.0885 C   0  0  3  0  0  0  0  0  0  0  0  0
   -1.7676   -2.1652   -0.0962 C   0  0  3  0  0  0  0  0  0  0  0  0
   -3.0368   -0.0467   -0.2386 C   0  0  0  0  0  0  0  0  0  0  0  0
    2.1882   -0.0064   -0.8447 C   0  0  3  0  0  0  0  0  0  0  0  0
    0.7211   -2.1015   -0.4182 C   0  0  0  0  0  0  0  0  0  0  0  0
    0.7987    2.2688   -0.7193 C   0  0  0  0  0  0  0  0  0  0  0  0
   -0.5838    1.3117   -2.4832 O   0  0  0  0  0  0  0  0  0  0  0  0
   -3.0423   -2.2183    0.8452 C   0  0  3  0  0  0  0  0  0  0  0  0
   -0.4009   -2.5993    0.4716 C   0  0  3  0  0  0  0  0  0  0  0  0
   -2.0710   -3.1161   -1.3102 C   0  0  0  0  0  0  0  0  0  0  0  0
   -3.9591   -1.1955    0.1346 C   0  0  0  0  0  0  0  0  0  0  0  0
    2.1829    1.5709   -0.8557 C   0  0  3  0  0  0  0  0  0  0  0  0
    3.4302   -0.5954   -0.0659 C   0  0  0  0  0  0  0  0  0  0  0  0
    2.3589   -0.5849   -2.2785 C   0  0  0  0  0  0  0  0  0  0  0  0
   -2.8429   -1.9491    2.3776 C   0  0  3  0  0  0  0  0  0  0  0  0
   -0.0686   -2.0919    1.7629 O   0  0  0  0  0  0  0  0  0  0  0  0
    3.0690    2.2902    0.1997 C   0  0  0  0  0  0  0  0  0  0  0  0
    3.8175    0.1673    1.1847 C   0  0  0  0  0  0  0  0  0  0  0  0
   -4.1634   -1.7348    3.1694 C   0  0  0  0  0  0  0  0  0  0  0  0
   -2.1313   -3.1296    3.0949 C   0  0  0  0  0  0  0  0  0  0  0  0
    4.2665    1.5442    0.7470 C   0  0  3  0  0  0  0  0  0  0  0  0
   -3.8847   -1.2708    4.6022 C   0  0  0  0  0  0  0  0  0  0  0  0
    4.7749    2.2887    1.8499 O   0  0  0  0  0  0  0  0  0  0  0  0
   -5.0849   -1.3403    5.5217 C   0  0  0  0  0  0  0  0  0  0  0  0
   -4.8093   -0.8716    6.7725 N   0  0  0  0  0  0  0  0  0  0  0  0
   -6.1421   -1.8945    5.2563 O   0  0  0  0  0  0  0  0  0  0  0  0
   -5.7754   -0.9843    7.8578 C   0  0  0  0  0  0  0  0  0  0  0  0
   -5.8017   -2.3858    8.4570 C   0  0  0  0  0  0  0  0  0  0  0  0
   -6.0232   -3.3709    7.5542 O   0  0  0  0  0  0  0  0  0  0  0  0
   -5.6951   -2.6106    9.6549 O   0  0  0  0  0  0  0  0  0  0  0  0
   -0.6718    0.4869    0.7268 H   0  0  0  0  0  0  0  0  0  0  0  0
   -1.7380   -0.7749   -1.7803 H   0  0  0  0  0  0  0  0  0  0  0  0
    1.1377   -0.4479    0.8620 H   0  0  0  0  0  0  0  0  0  0  0  0
   -1.3032    2.0802   -0.7802 H   0  0  0  0  0  0  0  0  0  0  0  0
   -2.8921    0.5980    0.6357 H   0  0  0  0  0  0  0  0  0  0  0  0
   -3.4671    0.5728   -1.0335 H   0  0  0  0  0  0  0  0  0  0  0  0
    1.6225   -2.6485   -0.1314 H   0  0  0  0  0  0  0  0  0  0  0  0
    0.5452   -2.3380   -1.4705 H   0  0  0  0  0  0  0  0  0  0  0  0
    0.6381    2.5641    0.3282 H   0  0  0  0  0  0  0  0  0  0  0  0
    0.8283    3.2061   -1.2868 H   0  0  0  0  0  0  0  0  0  0  0  0
    0.2813    1.1214   -2.8688 H   0  0  0  0  0  0  0  0  0  0  0  0
   -3.5153   -3.2063    0.7698 H   0  0  0  0  0  0  0  0  0  0  0  0
   -0.3585   -3.6915    0.5391 H   0  0  0  0  0  0  0  0  0  0  0  0
   -1.2772   -3.1118   -2.0628 H   0  0  0  0  0  0  0  0  0  0  0  0
   -2.1978   -4.1524   -0.9733 H   0  0  0  0  0  0  0  0  0  0  0  0
   -2.9818   -2.8421   -1.8375 H   0  0  0  0  0  0  0  0  0  0  0  0
   -4.8192   -0.8553    0.7102 H   0  0  0  0  0  0  0  0  0  0  0  0
   -4.3798   -1.6312   -0.7803 H   0  0  0  0  0  0  0  0  0  0  0  0
    2.5823    1.8686   -1.8355 H   0  0  0  0  0  0  0  0  0  0  0  0
    3.2737   -1.6379    0.2246 H   0  0  0  0  0  0  0  0  0  0  0  0
    4.3057   -0.6222   -0.7284 H   0  0  0  0  0  0  0  0  0  0  0  0
    1.4681   -0.4728   -2.8964 H   0  0  0  0  0  0  0  0  0  0  0  0
    3.2065   -0.1235   -2.7967 H   0  0  0  0  0  0  0  0  0  0  0  0
    2.5859   -1.6606   -2.2440 H   0  0  0  0  0  0  0  0  0  0  0  0
   -2.2685   -1.0236    2.4875 H   0  0  0  0  0  0  0  0  0  0  0  0
   -0.4334   -1.2026    1.8706 H   0  0  0  0  0  0  0  0  0  0  0  0
    2.4658    2.5593    1.0793 H   0  0  0  0  0  0  0  0  0  0  0  0
    3.3938    3.2578   -0.2052 H   0  0  0  0  0  0  0  0  0  0  0  0
    2.9889    0.2300    1.9021 H   0  0  0  0  0  0  0  0  0  0  0  0
    4.6251   -0.3525    1.7133 H   0  0  0  0  0  0  0  0  0  0  0  0
   -4.7989   -0.9791    2.7062 H   0  0  0  0  0  0  0  0  0  0  0  0
   -4.7381   -2.6694    3.1667 H   0  0  0  0  0  0  0  0  0  0  0  0
   -1.2887   -3.5796    2.5831 H   0  0  0  0  0  0  0  0  0  0  0  0
   -1.7294   -2.8063    4.0616 H   0  0  0  0  0  0  0  0  0  0  0  0
   -2.8166   -3.9635    3.2576 H   0  0  0  0  0  0  0  0  0  0  0  0
    5.0595    1.4753   -0.0052 H   0  0  0  0  0  0  0  0  0  0  0  0
   -3.1406   -1.9011    5.0933 H   0  0  0  0  0  0  0  0  0  0  0  0
   -3.4950   -0.2459    4.5911 H   0  0  0  0  0  0  0  0  0  0  0  0
    5.0031    1.6739    2.5672 H   0  0  0  0  0  0  0  0  0  0  0  0
   -3.8424   -0.6927    7.0323 H   0  0  0  0  0  0  0  0  0  0  0  0
   -5.4811   -0.2675    8.6308 H   0  0  0  0  0  0  0  0  0  0  0  0
   -6.7769   -0.7352    7.4945 H   0  0  0  0  0  0  0  0  0  0  0  0
   -6.2075   -3.0230    6.6483 H   0  0  0  0  0  0  0  0  0  0  0  0
  1  2  1  0  0  0  0
  1  3  1  0  0  0  0
  1  4  1  0  0  0  0
  1 34  1  0  0  0  0
  2  5  1  0  0  0  0
  2  6  1  0  0  0  0
  2 35  1  0  0  0  0
  3  7  1  0  0  0  0
  3  8  1  0  0  0  0
  3 36  1  0  0  0  0
  4  9  1  0  0  0  0
  4 10  1  0  0  0  0
  4 37  1  0  0  0  0
  5 11  1  0  0  0  0
  5 12  1  0  0  0  0
  5 13  1  0  0  0  0
  6 14  1  0  0  0  0
  6 38  1  0  0  0  0
  6 39  1  0  0  0  0
  7 15  1  0  0  0  0
  7 16  1  0  0  0  0
  7 17  1  0  0  0  0
  8 12  1  0  0  0  0
  8 40  1  0  0  0  0
  8 41  1  0  0  0  0
  9 42  1  0  0  0  0
  9 43  1  0  0  0  0
 10 44  1  0  0  0  0
 11 18  1  0  0  0  0
 11 14  1  0  0  0  0
 11 45  1  0  0  0  0
 12 19  1  0  0  0  0
 12 46  1  0  0  0  0
 13 47  1  0  0  0  0
 13 48  1  0  0  0  0
 13 49  1  0  0  0  0
 14 50  1  0  0  0  0
 14 51  1  0  0  0  0
 15  9  1  0  0  0  0
 15 20  1  0  0  0  0
 15 52  1  0  0  0  0
 16 21  1  0  0  0  0
 16 53  1  0  0  0  0
 16 54  1  0  0  0  0
 17 55  1  0  0  0  0
 17 56  1  0  0  0  0
 17 57  1  0  0  0  0
 18 22  1  0  0  0  0
 18 23  1  0  0  0  0
 18 58  1  0  0  0  0
 19 59  1  0  0  0  0
 20 24  1  0  0  0  0
 20 60  1  0  0  0  0
 20 61  1  0  0  0  0
 21 24  1  0  0  0  0
 21 62  1  0  0  0  0
 21 63  1  0  0  0  0
 22 25  1  0  0  0  0
 22 64  1  0  0  0  0
 22 65  1  0  0  0  0
 23 66  1  0  0  0  0
 23 67  1  0  0  0  0
 23 68  1  0  0  0  0
 24 26  1  0  0  0  0
 24 69  1  0  0  0  0
 25 27  1  0  0  0  0
 25 70  1  0  0  0  0
 25 71  1  0  0  0  0
 26 72  1  0  0  0  0
 27 28  1  0  0  0  0
 27 29  2  0  0  0  0
 28 30  1  0  0  0  0
 28 73  1  0  0  0  0
 30 31  1  0  0  0  0
 30 74  1  0  0  0  0
 30 75  1  0  0  0  0
 31 32  1  0  0  0  0
 31 33  2  0  0  0  0
 32 76  1  0  0  0  0
M  END
>  <Mol_ID>
2082

>  <Formula>
C26H43NO6

>  <MolWeight>
465.62272

>  <Cat>
S4958

>  <Name>
Glycocholic acid

>  <Synonyms>
Cholylglycine, Glycocholate

>  <Target>
Others

>  <Form>
free base

>  <CAS>
475-31-0

>  <URL>
http://selleckchem.com/products/glycocholic-acid.html

$$$$
