S4969 Tropine.cdx
 OpenBabel08302519533D

 25 26  0  0  0  0  0  0  0  0999 V2000
    0.2742   -1.1506    0.3751 C   0  0  1  0  0  0  0  0  0  0  0  0
    0.4080   -0.0165    1.2931 N   0  0  0  0  0  0  0  0  0  0  0  0
   -1.1394   -1.2772   -0.2086 C   0  0  0  0  0  0  0  0  0  0  0  0
    1.2925   -0.7771   -0.7066 C   0  0  0  0  0  0  0  0  0  0  0  0
    0.3284    1.1435    0.4000 C   0  0  1  0  0  0  0  0  0  0  0  0
   -0.5055   -0.0078    2.4229 C   0  0  0  0  0  0  0  0  0  0  0  0
   -1.8018    0.0563   -0.5899 C   0  0  1  0  0  0  0  0  0  0  0  0
    1.3322    0.7475   -0.6865 C   0  0  0  0  0  0  0  0  0  0  0  0
   -1.0726    1.3476   -0.1917 C   0  0  0  0  0  0  0  0  0  0  0  0
   -2.0583    0.0777   -1.9982 O   0  0  0  0  0  0  0  0  0  0  0  0
    0.5667   -2.0943    0.8497 H   0  0  0  0  0  0  0  0  0  0  0  0
   -1.7709   -1.7624    0.5475 H   0  0  0  0  0  0  0  0  0  0  0  0
   -1.1252   -1.9626   -1.0653 H   0  0  0  0  0  0  0  0  0  0  0  0
    1.0269   -1.1637   -1.6975 H   0  0  0  0  0  0  0  0  0  0  0  0
    2.2855   -1.1692   -0.4520 H   0  0  0  0  0  0  0  0  0  0  0  0
    0.6600    2.0627    0.8963 H   0  0  0  0  0  0  0  0  0  0  0  0
   -1.5627    0.0538    2.1504 H   0  0  0  0  0  0  0  0  0  0  0  0
   -0.3725   -0.9150    3.0224 H   0  0  0  0  0  0  0  0  0  0  0  0
   -0.2830    0.8410    3.0784 H   0  0  0  0  0  0  0  0  0  0  0  0
   -2.7941    0.0866   -0.1207 H   0  0  0  0  0  0  0  0  0  0  0  0
    1.0969    1.1738   -1.6667 H   0  0  0  0  0  0  0  0  0  0  0  0
    2.3423    1.0810   -0.4147 H   0  0  0  0  0  0  0  0  0  0  0  0
   -1.0175    2.0384   -1.0428 H   0  0  0  0  0  0  0  0  0  0  0  0
   -1.6828    1.8595    0.5640 H   0  0  0  0  0  0  0  0  0  0  0  0
   -2.8099   -0.5116   -2.1619 H   0  0  0  0  0  0  0  0  0  0  0  0
  1  2  1  0  0  0  0
  1  3  1  0  0  0  0
  1  4  1  0  0  0  0
  1 11  1  1  0  0  0
  2  5  1  0  0  0  0
  2  6  1  0  0  0  0
  3  7  1  0  0  0  0
  3 12  1  0  0  0  0
  3 13  1  0  0  0  0
  4  8  1  0  0  0  0
  4 14  1  0  0  0  0
  4 15  1  0  0  0  0
  5  9  1  0  0  0  0
  5  8  1  0  0  0  0
  5 16  1  1  0  0  0
  6 17  1  0  0  0  0
  6 18  1  0  0  0  0
  6 19  1  0  0  0  0
  7  9  1  0  0  0  0
  7 20  1  1  0  0  0
  7 10  1  0  0  0  0
  8 21  1  0  0  0  0
  8 22  1  0  0  0  0
  9 23  1  0  0  0  0
  9 24  1  0  0  0  0
 10 25  1  0  0  0  0
M  END
>  <Mol_ID>
2052

>  <Formula>
C8H15NO

>  <MolWeight>
141.2108

>  <Cat>
S4969

>  <Name>
Tropine

>  <Synonyms>
Pseudotropine, 3alpha-Tropanol

>  <Target>
Others

>  <Form>
free base

>  <CAS>
120-29-6

>  <URL>
http://selleckchem.com/products/tropine.html

$$$$
