S4985 Dimetghyl4-Hydroxyisophthalate.cdx
 OpenBabel08302519533D

 25 25  0  0  0  0  0  0  0  0999 V2000
    0.1937   -1.3089    0.0001 C   0  0  0  0  0  0  0  0  0  0  0  0
   -1.2075   -1.1889   -0.0140 C   0  0  0  0  0  0  0  0  0  0  0  0
    0.9747   -0.1417    0.0159 C   0  0  0  0  0  0  0  0  0  0  0  0
    0.8795   -2.6304    0.0018 C   0  0  0  0  0  0  0  0  0  0  0  0
   -1.8164    0.0804   -0.0100 C   0  0  0  0  0  0  0  0  0  0  0  0
    0.3773    1.1173    0.0198 C   0  0  0  0  0  0  0  0  0  0  0  0
    2.3450   -0.1455    0.0291 O   0  0  0  0  0  0  0  0  0  0  0  0
    0.0120   -3.6707   -0.0106 O   0  0  0  0  0  0  0  0  0  0  0  0
    2.1007   -2.7209    0.0156 O   0  0  0  0  0  0  0  0  0  0  0  0
   -1.0137    1.2309    0.0076 C   0  0  0  0  0  0  0  0  0  0  0  0
   -3.2995    0.2654   -0.0237 C   0  0  0  0  0  0  0  0  0  0  0  0
    0.6531   -4.9517   -0.0032 C   0  0  0  0  0  0  0  0  0  0  0  0
   -3.9200   -0.9412   -0.0368 O   0  0  0  0  0  0  0  0  0  0  0  0
   -3.8505    1.3529   -0.0228 O   0  0  0  0  0  0  0  0  0  0  0  0
   -5.3486   -0.8800   -0.0503 C   0  0  0  0  0  0  0  0  0  0  0  0
   -1.8261   -2.0836   -0.0276 H   0  0  0  0  0  0  0  0  0  0  0  0
    0.9987    2.0100    0.0331 H   0  0  0  0  0  0  0  0  0  0  0  0
    2.6625   -1.0760    0.0271 H   0  0  0  0  0  0  0  0  0  0  0  0
   -1.4652    2.2212    0.0127 H   0  0  0  0  0  0  0  0  0  0  0  0
    1.2911   -5.0703   -0.8856 H   0  0  0  0  0  0  0  0  0  0  0  0
    1.2384   -5.0832    0.9132 H   0  0  0  0  0  0  0  0  0  0  0  0
   -0.1206   -5.7240   -0.0318 H   0  0  0  0  0  0  0  0  0  0  0  0
   -5.7240   -0.3878    0.8523 H   0  0  0  0  0  0  0  0  0  0  0  0
   -5.7068   -0.3700   -0.9502 H   0  0  0  0  0  0  0  0  0  0  0  0
   -5.7244   -1.9071   -0.0637 H   0  0  0  0  0  0  0  0  0  0  0  0
  1  2  2  0  0  0  0
  1  3  1  0  0  0  0
  1  4  1  0  0  0  0
  2  5  1  0  0  0  0
  2 16  1  0  0  0  0
  3  6  2  0  0  0  0
  3  7  1  0  0  0  0
  4  8  1  0  0  0  0
  4  9  2  0  0  0  0
  5 10  2  0  0  0  0
  5 11  1  0  0  0  0
  6 10  1  0  0  0  0
  6 17  1  0  0  0  0
  7 18  1  0  0  0  0
  8 12  1  0  0  0  0
 10 19  1  0  0  0  0
 11 13  1  0  0  0  0
 11 14  2  0  0  0  0
 12 20  1  0  0  0  0
 12 21  1  0  0  0  0
 12 22  1  0  0  0  0
 13 15  1  0  0  0  0
 15 23  1  0  0  0  0
 15 24  1  0  0  0  0
 15 25  1  0  0  0  0
M  END
>  <Mol_ID>
2018

>  <Formula>
C10H10O5

>  <MolWeight>
210.1834

>  <Cat>
S4985

>  <Name>
Dimethyl 4-Hydroxyisophthalate

>  <Synonyms>
4-Hydroxyisophthalic acid dimethyl ester

>  <Target>
Others

>  <Form>
free base

>  <CAS>
5985-24-0

>  <URL>
http://selleckchem.com/products/dimetghyl4-hydroxyisophthalate.html

$$$$
