S4997 4-Butylresorcinol.cdx
 OpenBabel08302520293D

 26 26  0  0  0  0  0  0  0  0999 V2000
    1.1887    1.0314    0.0218 C   0  0  0  0  0  0  0  0  0  0  0  0
    1.1774   -0.3682   -0.0530 C   0  0  0  0  0  0  0  0  0  0  0  0
   -0.0466    1.6930    0.1554 C   0  0  0  0  0  0  0  0  0  0  0  0
    2.4506    1.8612   -0.0440 C   0  0  0  0  0  0  0  0  0  0  0  0
   -0.0197   -1.0823   -0.0557 C   0  0  0  0  0  0  0  0  0  0  0  0
    2.3179   -1.1182   -0.1170 O   0  0  0  0  0  0  0  0  0  0  0  0
   -1.2494    0.9807    0.1752 C   0  0  0  0  0  0  0  0  0  0  0  0
    3.2457    1.7394   -1.3518 C   0  0  0  0  0  0  0  0  0  0  0  0
   -1.2252   -0.4029    0.0548 C   0  0  0  0  0  0  0  0  0  0  0  0
    2.4617    2.1730   -2.5925 C   0  0  0  0  0  0  0  0  0  0  0  0
   -2.3752   -1.1357    0.0467 O   0  0  0  0  0  0  0  0  0  0  0  0
    3.3087    2.0390   -3.8500 C   0  0  0  0  0  0  0  0  0  0  0  0
   -0.0819    2.7776    0.2380 H   0  0  0  0  0  0  0  0  0  0  0  0
    2.2100    2.9200    0.1164 H   0  0  0  0  0  0  0  0  0  0  0  0
    3.0928    1.5771    0.7992 H   0  0  0  0  0  0  0  0  0  0  0  0
   -0.0095   -2.1649   -0.1358 H   0  0  0  0  0  0  0  0  0  0  0  0
    3.0655   -0.5754    0.1740 H   0  0  0  0  0  0  0  0  0  0  0  0
   -2.1851    1.5208    0.2798 H   0  0  0  0  0  0  0  0  0  0  0  0
    4.1418    2.3660   -1.2615 H   0  0  0  0  0  0  0  0  0  0  0  0
    3.6043    0.7128   -1.4921 H   0  0  0  0  0  0  0  0  0  0  0  0
    1.5616    1.5606   -2.7122 H   0  0  0  0  0  0  0  0  0  0  0  0
    2.1379    3.2137   -2.4828 H   0  0  0  0  0  0  0  0  0  0  0  0
   -3.1311   -0.5274    0.0785 H   0  0  0  0  0  0  0  0  0  0  0  0
    3.5773    0.9923   -4.0295 H   0  0  0  0  0  0  0  0  0  0  0  0
    2.7549    2.4002   -4.7221 H   0  0  0  0  0  0  0  0  0  0  0  0
    4.2326    2.6205   -3.7680 H   0  0  0  0  0  0  0  0  0  0  0  0
  1  2  2  0  0  0  0
  1  3  1  0  0  0  0
  1  4  1  0  0  0  0
  2  5  1  0  0  0  0
  2  6  1  0  0  0  0
  3  7  2  0  0  0  0
  3 13  1  0  0  0  0
  4  8  1  0  0  0  0
  4 14  1  0  0  0  0
  4 15  1  0  0  0  0
  5  9  2  0  0  0  0
  5 16  1  0  0  0  0
  6 17  1  0  0  0  0
  7  9  1  0  0  0  0
  7 18  1  0  0  0  0
  8 10  1  0  0  0  0
  8 19  1  0  0  0  0
  8 20  1  0  0  0  0
  9 11  1  0  0  0  0
 10 12  1  0  0  0  0
 10 21  1  0  0  0  0
 10 22  1  0  0  0  0
 11 23  1  0  0  0  0
 12 24  1  0  0  0  0
 12 25  1  0  0  0  0
 12 26  1  0  0  0  0
M  END
>  <Mol_ID>
3241

>  <Formula>
C10H14O2

>  <MolWeight>
166.21696

>  <Cat>
S4997

>  <Name>
4-Butylresorcinol

>  <Synonyms>
4-n-Butylresorcinol, Rucinol

>  <Target>
Tyrosinase

>  <Form>
Resorcinol

>  <CAS>
18979-61-8

>  <URL>
https://www.selleckchem.com/products/4-butylresorcinol.html

$$$$
