S5009 Brivudine.cdx
 OpenBabel08302519523D

 32 33  0  0  0  0  0  0  0  0999 V2000
    1.1232   -0.8297   -0.4341 C   0  0  2  0  0  0  0  0  0  0  0  0
    2.3624   -1.5786   -0.2757 N   0  0  0  0  0  0  0  0  0  0  0  0
    1.3459    0.5816   -0.2292 O   0  0  0  0  0  0  0  0  0  0  0  0
    0.0102   -1.2354    0.5190 C   0  0  0  0  0  0  0  0  0  0  0  0
    2.4577   -2.7961   -0.9292 C   0  0  0  0  0  0  0  0  0  0  0  0
    3.4236   -1.0596    0.4361 C   0  0  0  0  0  0  0  0  0  0  0  0
    0.1944    1.1367    0.4538 C   0  0  1  0  0  0  0  0  0  0  0  0
   -0.8397    0.0167    0.5409 C   0  0  1  0  0  0  0  0  0  0  0  0
    3.6688   -3.4241   -0.8291 N   0  0  0  0  0  0  0  0  0  0  0  0
    1.5471   -3.2961   -1.5837 O   0  0  0  0  0  0  0  0  0  0  0  0
    4.6476   -1.6149    0.4661 C   0  0  0  0  0  0  0  0  0  0  0  0
    0.6429    1.6236    1.8351 C   0  0  0  0  0  0  0  0  0  0  0  0
   -1.7073    0.0222   -0.5945 O   0  0  0  0  0  0  0  0  0  0  0  0
    4.8098   -2.8902   -0.2988 C   0  0  0  0  0  0  0  0  0  0  0  0
    5.7315   -0.9318    1.1617 C   0  0  0  0  0  0  0  0  0  0  0  0
    1.6682    2.6069    1.7095 O   0  0  0  0  0  0  0  0  0  0  0  0
    5.8929   -3.4469   -0.4638 O   0  0  0  0  0  0  0  0  0  0  0  0
    7.0120   -1.3088    1.2560 C   0  0  0  0  0  0  0  0  0  0  0  0
    8.3068   -0.3021    2.1325 Br  0  0  0  0  0  0  0  0  0  0  0  0
    0.7833   -0.9408   -1.4715 H   0  0  0  0  0  0  0  0  0  0  0  0
    0.4107   -1.4358    1.5199 H   0  0  0  0  0  0  0  0  0  0  0  0
   -0.5222   -2.1264    0.1726 H   0  0  0  0  0  0  0  0  0  0  0  0
    3.2384   -0.1237    0.9549 H   0  0  0  0  0  0  0  0  0  0  0  0
   -0.1494    1.9835   -0.1499 H   0  0  0  0  0  0  0  0  0  0  0  0
   -1.4754    0.0836    1.4281 H   0  0  0  0  0  0  0  0  0  0  0  0
    3.7762   -4.2722   -1.3646 H   0  0  0  0  0  0  0  0  0  0  0  0
   -0.1945    2.0755    2.3753 H   0  0  0  0  0  0  0  0  0  0  0  0
    1.0511    0.8075    2.4389 H   0  0  0  0  0  0  0  0  0  0  0  0
   -1.2066    0.2736   -1.3913 H   0  0  0  0  0  0  0  0  0  0  0  0
    5.4570    0.0102    1.6361 H   0  0  0  0  0  0  0  0  0  0  0  0
    2.3198    2.2509    1.0772 H   0  0  0  0  0  0  0  0  0  0  0  0
    7.4178   -2.2160    0.8260 H   0  0  0  0  0  0  0  0  0  0  0  0
  1  3  1  0  0  0  0
  1  4  1  0  0  0  0
  1 20  1  6  0  0  0
  1  2  1  0  0  0  0
  2  5  1  0  0  0  0
  2  6  1  0  0  0  0
  3  7  1  0  0  0  0
  4  8  1  0  0  0  0
  4 21  1  0  0  0  0
  4 22  1  0  0  0  0
  5  9  1  0  0  0  0
  5 10  2  0  0  0  0
  6 11  2  0  0  0  0
  6 23  1  0  0  0  0
  7  8  1  0  0  0  0
  7 24  1  6  0  0  0
  7 12  1  0  0  0  0
  8 13  1  0  0  0  0
  8 25  1  1  0  0  0
  9 14  1  0  0  0  0
  9 26  1  0  0  0  0
 11 15  1  0  0  0  0
 11 14  1  0  0  0  0
 12 16  1  0  0  0  0
 12 27  1  0  0  0  0
 12 28  1  0  0  0  0
 13 29  1  0  0  0  0
 14 17  2  0  0  0  0
 15 18  2  0  0  0  0
 15 30  1  0  0  0  0
 16 31  1  0  0  0  0
 18 19  1  0  0  0  0
 18 32  1  0  0  0  0
M  END
>  <Mol_ID>
1987

>  <Formula>
C11H13BrN2O5

>  <MolWeight>
333.13532

>  <Cat>
S5009

>  <Name>
Brivudine

>  <Synonyms>
BVDU

>  <Target>
CMV

>  <Form>
free base

>  <CAS>
69304-47-8

>  <URL>
http://selleckchem.com/products/brivudine.html

$$$$
