S5035 6-AMinopenicillanic acid.cdx
 OpenBabel08302521403D

 26 27  0  0  0  0  0  0  0  0999 V2000
    0.5651    0.3029   -0.5192 N   0  0  0  0  0  0  0  0  0  0  0  0
   -0.0429   -1.0464   -0.4406 C   0  0  1  0  0  0  0  0  0  0  0  0
   -0.3232    1.4558   -0.2894 C   0  0  2  0  0  0  0  0  0  0  0  0
    1.5413    0.0168    0.4059 C   0  0  0  0  0  0  0  0  0  0  0  0
    1.1898   -1.4965    0.3919 C   0  0  1  0  0  0  0  0  0  0  0  0
   -1.6574   -0.8077    0.4003 S   0  0  0  0  0  0  0  0  0  0  0  0
   -1.4168    1.0016    0.7111 C   0  0  0  0  0  0  0  0  0  0  0  0
   -0.8484    1.9513   -1.6492 C   0  0  0  0  0  0  0  0  0  0  0  0
    2.2410    0.7499    1.0618 O   0  0  0  0  0  0  0  0  0  0  0  0
    0.8087   -2.0915    1.6892 N   0  0  0  0  0  0  0  0  0  0  0  0
   -2.7656    1.7196    0.5844 C   0  0  0  0  0  0  0  0  0  0  0  0
   -0.9595    1.1511    2.1754 C   0  0  0  0  0  0  0  0  0  0  0  0
   -0.3679    1.2605   -2.7136 O   0  0  0  0  0  0  0  0  0  0  0  0
   -1.6010    2.9034   -1.7965 O   0  0  0  0  0  0  0  0  0  0  0  0
   -0.1162   -1.5193   -1.4251 H   0  0  0  0  0  0  0  0  0  0  0  0
    0.2741    2.2791    0.1221 H   0  0  0  0  0  0  0  0  0  0  0  0
    1.9297   -2.0879   -0.1569 H   0  0  0  0  0  0  0  0  0  0  0  0
    1.4733   -1.8848    2.4360 H   0  0  0  0  0  0  0  0  0  0  0  0
   -0.1037   -1.7815    2.0338 H   0  0  0  0  0  0  0  0  0  0  0  0
   -3.4876    1.3526    1.3243 H   0  0  0  0  0  0  0  0  0  0  0  0
   -2.6448    2.7948    0.7652 H   0  0  0  0  0  0  0  0  0  0  0  0
   -3.2269    1.5906   -0.3997 H   0  0  0  0  0  0  0  0  0  0  0  0
   -0.0400    0.6084    2.4041 H   0  0  0  0  0  0  0  0  0  0  0  0
   -0.7786    2.2044    2.4172 H   0  0  0  0  0  0  0  0  0  0  0  0
   -1.7246    0.7849    2.8717 H   0  0  0  0  0  0  0  0  0  0  0  0
    0.2991    0.6075   -2.4203 H   0  0  0  0  0  0  0  0  0  0  0  0
  1  2  1  0  0  0  0
  1  3  1  0  0  0  0
  1  4  1  0  0  0  0
  2  5  1  0  0  0  0
  2  6  1  0  0  0  0
  2 15  1  6  0  0  0
  3  7  1  0  0  0  0
  3  8  1  0  0  0  0
  3 16  1  1  0  0  0
  4  9  2  0  0  0  0
  4  5  1  0  0  0  0
  5 10  1  0  0  0  0
  5 17  1  6  0  0  0
  6  7  1  0  0  0  0
  7 11  1  0  0  0  0
  7 12  1  0  0  0  0
  8 13  1  0  0  0  0
  8 14  2  0  0  0  0
 10 18  1  0  0  0  0
 10 19  1  0  0  0  0
 11 20  1  0  0  0  0
 11 21  1  0  0  0  0
 11 22  1  0  0  0  0
 12 23  1  0  0  0  0
 12 24  1  0  0  0  0
 12 25  1  0  0  0  0
 13 26  1  0  0  0  0
M  END
>  <Mol_ID>
8257

>  <Formula>
C8H12N2O3S

>  <MolWeight>
216.25748

>  <Cat>
S5035

>  <Name>
6-Aminopenicillanic acid

>  <Synonyms>
N/A

>  <Target>
Antibiotics

>  <Form>
free base

>  <CAS>
551-16-6

>  <URL>
http://selleckchem.com/products/6-aminopenicillanic-acid.html

$$$$
