S5044 Isoxepac.cdx
 OpenBabel08302520013D

 32 34  0  0  0  0  0  0  0  0999 V2000
    1.2879    0.4951   -0.0887 C   0  0  0  0  0  0  0  0  0  0  0  0
    1.4824   -0.8790    0.0985 C   0  0  0  0  0  0  0  0  0  0  0  0
   -0.0255    1.1779   -0.2623 C   0  0  0  0  0  0  0  0  0  0  0  0
    2.4212    1.3365   -0.0569 C   0  0  0  0  0  0  0  0  0  0  0  0
    0.5189   -1.8467    0.0896 O   0  0  0  0  0  0  0  0  0  0  0  0
    2.7658   -1.3748    0.3564 C   0  0  0  0  0  0  0  0  0  0  0  0
   -1.3420    0.5281   -0.0473 C   0  0  0  0  0  0  0  0  0  0  0  0
   -0.0298    2.3764   -0.5630 O   0  0  0  0  0  0  0  0  0  0  0  0
    3.7128    0.8410    0.1788 C   0  0  0  0  0  0  0  0  0  0  0  0
   -0.4793   -1.6656   -0.9063 C   0  0  0  0  0  0  0  0  0  0  0  0
    3.8743   -0.5300    0.3938 C   0  0  0  0  0  0  0  0  0  0  0  0
   -1.5745   -0.8181   -0.3452 C   0  0  0  0  0  0  0  0  0  0  0  0
   -2.3964    1.3269    0.4244 C   0  0  0  0  0  0  0  0  0  0  0  0
    4.8954    1.7741    0.2555 C   0  0  0  0  0  0  0  0  0  0  0  0
   -2.8533   -1.3596   -0.1268 C   0  0  0  0  0  0  0  0  0  0  0  0
   -3.6642    0.7823    0.6304 C   0  0  0  0  0  0  0  0  0  0  0  0
    5.1606    2.2784    1.6602 C   0  0  0  0  0  0  0  0  0  0  0  0
   -3.8902   -0.5635    0.3604 C   0  0  0  0  0  0  0  0  0  0  0  0
    4.1380    2.9918    2.1922 O   0  0  0  0  0  0  0  0  0  0  0  0
    6.2082    2.1037    2.2631 O   0  0  0  0  0  0  0  0  0  0  0  0
    2.2857    2.4094   -0.2028 H   0  0  0  0  0  0  0  0  0  0  0  0
    2.9048   -2.4425    0.5271 H   0  0  0  0  0  0  0  0  0  0  0  0
   -0.0775   -1.2493   -1.8404 H   0  0  0  0  0  0  0  0  0  0  0  0
   -0.8587   -2.6619   -1.1604 H   0  0  0  0  0  0  0  0  0  0  0  0
    4.8563   -0.9530    0.5951 H   0  0  0  0  0  0  0  0  0  0  0  0
   -2.2318    2.3829    0.6316 H   0  0  0  0  0  0  0  0  0  0  0  0
    5.7852    1.2601   -0.1269 H   0  0  0  0  0  0  0  0  0  0  0  0
    4.7540    2.6462   -0.3946 H   0  0  0  0  0  0  0  0  0  0  0  0
   -3.0517   -2.4084   -0.3392 H   0  0  0  0  0  0  0  0  0  0  0  0
   -4.4717    1.4097    0.9989 H   0  0  0  0  0  0  0  0  0  0  0  0
   -4.8766   -0.9924    0.5228 H   0  0  0  0  0  0  0  0  0  0  0  0
    3.3540    3.0719    1.6191 H   0  0  0  0  0  0  0  0  0  0  0  0
  1  2  2  0  0  0  0
  1  3  1  0  0  0  0
  1  4  1  0  0  0  0
  2  5  1  0  0  0  0
  2  6  1  0  0  0  0
  3  7  1  0  0  0  0
  3  8  2  0  0  0  0
  4  9  2  0  0  0  0
  4 21  1  0  0  0  0
  5 10  1  0  0  0  0
  6 11  2  0  0  0  0
  6 22  1  0  0  0  0
  7 12  2  0  0  0  0
  7 13  1  0  0  0  0
  9 14  1  0  0  0  0
  9 11  1  0  0  0  0
 10 12  1  0  0  0  0
 10 23  1  0  0  0  0
 10 24  1  0  0  0  0
 11 25  1  0  0  0  0
 12 15  1  0  0  0  0
 13 16  2  0  0  0  0
 13 26  1  0  0  0  0
 14 17  1  0  0  0  0
 14 27  1  0  0  0  0
 14 28  1  0  0  0  0
 15 18  2  0  0  0  0
 15 29  1  0  0  0  0
 16 18  1  0  0  0  0
 16 30  1  0  0  0  0
 17 19  1  0  0  0  0
 17 20  2  0  0  0  0
 18 31  1  0  0  0  0
 19 32  1  0  0  0  0
M  END
>  <Mol_ID>
2852

>  <Formula>
C16H12O4

>  <MolWeight>
268.26408

>  <Cat>
S5044

>  <Name>
Isoxepac

>  <Synonyms>
N/A

>  <Target>
Immunology & Inflammation related

>  <Form>
free base

>  <CAS>
55453-87-7

>  <URL>
http://selleckchem.com/products/isoxepac.html

$$$$
