S5051 Pipemidic acid.cdx
 OpenBabel08302521383D

 39 41  0  0  0  0  0  0  0  0999 V2000
   -0.1050   -0.7000    0.0341 C   0  0  0  0  0  0  0  0  0  0  0  0
   -0.1245    0.6833    0.0103 C   0  0  0  0  0  0  0  0  0  0  0  0
    1.1528   -1.3547    0.0498 N   0  0  0  0  0  0  0  0  0  0  0  0
   -1.2569   -1.4063    0.0249 N   0  0  0  0  0  0  0  0  0  0  0  0
    1.1188    1.4630    0.0125 C   0  0  0  0  0  0  0  0  0  0  0  0
   -1.3522    1.2858   -0.0382 C   0  0  0  0  0  0  0  0  0  0  0  0
    2.3223   -0.6098    0.0443 C   0  0  0  0  0  0  0  0  0  0  0  0
    1.1409   -2.8224    0.0082 C   0  0  0  0  0  0  0  0  0  0  0  0
   -2.4320   -0.7508   -0.0338 C   0  0  0  0  0  0  0  0  0  0  0  0
    2.4011    0.7299    0.0246 C   0  0  0  0  0  0  0  0  0  0  0  0
    1.1054    2.6931   -0.0029 O   0  0  0  0  0  0  0  0  0  0  0  0
   -2.5023    0.5899   -0.0666 N   0  0  0  0  0  0  0  0  0  0  0  0
    1.0779   -3.4166    1.4062 C   0  0  0  0  0  0  0  0  0  0  0  0
   -3.5976   -1.4675   -0.0892 N   0  0  0  0  0  0  0  0  0  0  0  0
    3.7249    1.3854   -0.0035 C   0  0  0  0  0  0  0  0  0  0  0  0
   -4.8921   -0.7986   -0.2090 C   0  0  0  0  0  0  0  0  0  0  0  0
   -3.6236   -2.9083    0.1443 C   0  0  0  0  0  0  0  0  0  0  0  0
    3.6821    2.7344   -0.0349 O   0  0  0  0  0  0  0  0  0  0  0  0
    4.7788    0.7659   -0.0042 O   0  0  0  0  0  0  0  0  0  0  0  0
   -5.8129   -1.1975    0.9648 C   0  0  0  0  0  0  0  0  0  0  0  0
   -4.6023   -3.2479    1.2946 C   0  0  0  0  0  0  0  0  0  0  0  0
   -5.9506   -2.6609    1.1322 N   0  0  0  0  0  0  0  0  0  0  0  0
   -1.4626    2.3659   -0.0671 H   0  0  0  0  0  0  0  0  0  0  0  0
    3.2266   -1.2184    0.0500 H   0  0  0  0  0  0  0  0  0  0  0  0
    0.3204   -3.2092   -0.6089 H   0  0  0  0  0  0  0  0  0  0  0  0
    2.0586   -3.1778   -0.4788 H   0  0  0  0  0  0  0  0  0  0  0  0
    0.1310   -3.1775    1.9005 H   0  0  0  0  0  0  0  0  0  0  0  0
    1.1666   -4.5069    1.3551 H   0  0  0  0  0  0  0  0  0  0  0  0
    1.8913   -3.0407    2.0358 H   0  0  0  0  0  0  0  0  0  0  0  0
   -4.8265    0.2943   -0.2441 H   0  0  0  0  0  0  0  0  0  0  0  0
   -5.3558   -1.1096   -1.1538 H   0  0  0  0  0  0  0  0  0  0  0  0
   -3.9593   -3.4050   -0.7745 H   0  0  0  0  0  0  0  0  0  0  0  0
   -2.6429   -3.3295    0.3913 H   0  0  0  0  0  0  0  0  0  0  0  0
    2.7706    3.1153   -0.0306 H   0  0  0  0  0  0  0  0  0  0  0  0
   -5.4326   -0.7650    1.8986 H   0  0  0  0  0  0  0  0  0  0  0  0
   -6.8087   -0.7705    0.8019 H   0  0  0  0  0  0  0  0  0  0  0  0
   -4.1816   -2.9057    2.2484 H   0  0  0  0  0  0  0  0  0  0  0  0
   -4.7054   -4.3361    1.3690 H   0  0  0  0  0  0  0  0  0  0  0  0
   -6.3585   -3.0376    0.2762 H   0  0  0  0  0  0  0  0  0  0  0  0
  1  2  2  0  0  0  0
  1  3  1  0  0  0  0
  1  4  1  0  0  0  0
  2  5  1  0  0  0  0
  2  6  1  0  0  0  0
  3  7  1  0  0  0  0
  3  8  1  0  0  0  0
  4  9  2  0  0  0  0
  5 10  1  0  0  0  0
  5 11  2  0  0  0  0
  6 12  2  0  0  0  0
  6 23  1  0  0  0  0
  7 10  2  0  0  0  0
  7 24  1  0  0  0  0
  8 13  1  0  0  0  0
  8 25  1  0  0  0  0
  8 26  1  0  0  0  0
  9 14  1  0  0  0  0
  9 12  1  0  0  0  0
 10 15  1  0  0  0  0
 13 27  1  0  0  0  0
 13 28  1  0  0  0  0
 13 29  1  0  0  0  0
 14 16  1  0  0  0  0
 14 17  1  0  0  0  0
 15 18  1  0  0  0  0
 15 19  2  0  0  0  0
 16 20  1  0  0  0  0
 16 30  1  0  0  0  0
 16 31  1  0  0  0  0
 17 21  1  0  0  0  0
 17 32  1  0  0  0  0
 17 33  1  0  0  0  0
 18 34  1  0  0  0  0
 20 22  1  0  0  0  0
 20 35  1  0  0  0  0
 20 36  1  0  0  0  0
 21 22  1  0  0  0  0
 21 37  1  0  0  0  0
 21 38  1  0  0  0  0
 22 39  1  0  0  0  0
M  END
>  <Mol_ID>
7818

>  <Formula>
C14H17N5O3

>  <MolWeight>
303.31648

>  <Cat>
S5051

>  <Name>
Pipemidic acid

>  <Synonyms>
Acido pipemidico

>  <Target>
Antibiotics,Bacterial

>  <Form>
free base

>  <CAS>
51940-44-4

>  <URL>
http://selleckchem.com/products/pipemidic-acid.html

$$$$
