S5066 Pramipexole dihydrochloride.cdx
 OpenBabel08302520003D

 31 32  0  0  0  0  0  0  0  0999 V2000
    0.5896    0.4993    0.0102 C   0  0  0  0  0  0  0  0  0  0  0  0
    0.2501   -0.8354   -0.0281 C   0  0  0  0  0  0  0  0  0  0  0  0
    1.9433    0.7565    0.0902 N   0  0  0  0  0  0  0  0  0  0  0  0
   -0.4275    1.5896   -0.0489 C   0  0  0  0  0  0  0  0  0  0  0  0
   -1.1351   -1.3736   -0.0822 C   0  0  0  0  0  0  0  0  0  0  0  0
    1.6397   -1.8025    0.0838 S   0  0  0  0  0  0  0  0  0  0  0  0
    2.6040   -0.3768    0.1543 C   0  0  0  0  0  0  0  0  0  0  0  0
   -1.8465    1.0610    0.2660 C   0  0  0  0  0  0  0  0  0  0  0  0
   -2.1610   -0.2675   -0.4739 C   0  0  2  0  0  0  0  0  0  0  0  0
    3.9439   -0.4585    0.2500 N   0  0  0  0  0  0  0  0  0  0  0  0
   -3.4994   -0.8215   -0.1957 N   0  0  0  0  0  0  0  0  0  0  0  0
   -4.6523    0.0369   -0.4513 C   0  0  0  0  0  0  0  0  0  0  0  0
   -4.8356    0.5176   -1.8939 C   0  0  0  0  0  0  0  0  0  0  0  0
   -5.0780   -0.5996   -2.8991 C   0  0  0  0  0  0  0  0  0  0  0  0
   -0.4151    2.0234   -1.0562 H   0  0  0  0  0  0  0  0  0  0  0  0
   -0.1691    2.3894    0.6548 H   0  0  0  0  0  0  0  0  0  0  0  0
   -1.3846   -1.7801    0.9071 H   0  0  0  0  0  0  0  0  0  0  0  0
   -1.1959   -2.1987   -0.8024 H   0  0  0  0  0  0  0  0  0  0  0  0
   -2.5652    1.8422   -0.0061 H   0  0  0  0  0  0  0  0  0  0  0  0
   -1.9387    0.9040    1.3492 H   0  0  0  0  0  0  0  0  0  0  0  0
   -2.0629   -0.0871   -1.5530 H   0  0  0  0  0  0  0  0  0  0  0  0
    4.4536    0.3718   -0.0176 H   0  0  0  0  0  0  0  0  0  0  0  0
    4.3807   -1.3335   -0.0109 H   0  0  0  0  0  0  0  0  0  0  0  0
   -3.6124   -1.6995   -0.7024 H   0  0  0  0  0  0  0  0  0  0  0  0
   -5.5453   -0.5308   -0.1599 H   0  0  0  0  0  0  0  0  0  0  0  0
   -4.6292    0.8994    0.2230 H   0  0  0  0  0  0  0  0  0  0  0  0
   -5.6975    1.1959   -1.9230 H   0  0  0  0  0  0  0  0  0  0  0  0
   -3.9675    1.1083   -2.2060 H   0  0  0  0  0  0  0  0  0  0  0  0
   -6.0836   -1.0168   -2.7793 H   0  0  0  0  0  0  0  0  0  0  0  0
   -5.0011   -0.2048   -3.9175 H   0  0  0  0  0  0  0  0  0  0  0  0
   -4.3539   -1.4123   -2.8011 H   0  0  0  0  0  0  0  0  0  0  0  0
  1  2  2  0  0  0  0
  1  3  1  0  0  0  0
  1  4  1  0  0  0  0
  2  5  1  0  0  0  0
  2  6  1  0  0  0  0
  3  7  2  0  0  0  0
  4  8  1  0  0  0  0
  4 15  1  0  0  0  0
  4 16  1  0  0  0  0
  5  9  1  0  0  0  0
  5 17  1  0  0  0  0
  5 18  1  0  0  0  0
  6  7  1  0  0  0  0
  7 10  1  0  0  0  0
  8  9  1  0  0  0  0
  8 19  1  0  0  0  0
  8 20  1  0  0  0  0
  9 11  1  0  0  0  0
  9 21  1  6  0  0  0
 10 22  1  0  0  0  0
 10 23  1  0  0  0  0
 11 12  1  0  0  0  0
 11 24  1  0  0  0  0
 12 13  1  0  0  0  0
 12 25  1  0  0  0  0
 12 26  1  0  0  0  0
 13 14  1  0  0  0  0
 13 27  1  0  0  0  0
 13 28  1  0  0  0  0
 14 29  1  0  0  0  0
 14 30  1  0  0  0  0
 14 31  1  0  0  0  0
M  END
>  <Mol_ID>
2822

>  <Formula>
C10H19Cl2N3S

>  <MolWeight>
284.24896

>  <Cat>
S5066

>  <Name>
Pramipexole dihydrochloride

>  <Synonyms>
SND919

>  <Target>
Dopamine Receptor

>  <Form>
dihydrochloride

>  <CAS>
104632-25-9

>  <URL>
http://selleckchem.com/products/pramipexole-dihydrochloride.html

$$$$
