S5060 Metadoxine.cdx
 OpenBabel08302520013D

 39 39  0  0  0  0  0  0  0  0999 V2000
    1.9187    1.4284   -1.3113 C   0  0  0  0  0  0  0  0  0  0  0  0
    2.3438    0.5161   -0.3225 C   0  0  0  0  0  0  0  0  0  0  0  0
    0.8848   -1.1996   -1.1599 N   0  0  0  0  0  0  0  0  0  0  0  0
    0.9081    1.0052   -2.2023 C   0  0  0  0  0  0  0  0  0  0  0  0
    1.8532   -0.7879   -0.3139 C   0  0  0  0  0  0  0  0  0  0  0  0
    0.4347   -0.2994   -2.0541 C   0  0  0  0  0  0  0  0  0  0  0  0
    3.2782    0.8816    0.6116 O   0  0  0  0  0  0  0  0  0  0  0  0
    2.6245    2.7513   -1.4809 C   0  0  0  0  0  0  0  0  0  0  0  0
    0.3965    1.7576   -3.4024 C   0  0  0  0  0  0  0  0  0  0  0  0
    1.8594    3.8257   -0.9605 O   0  0  0  0  0  0  0  0  0  0  0  0
    0.2680    3.1534   -3.2007 O   0  0  0  0  0  0  0  0  0  0  0  0
    2.3561   -1.8399    0.6341 C   0  0  0  0  0  0  0  0  0  0  0  0
   -1.4003   -1.0882    1.1506 N   0  0  0  0  0  0  0  0  0  0  0  0
   -0.7565   -0.0937    1.8522 C   0  0  0  0  0  0  0  0  0  0  0  0
   -2.6965   -0.6937    0.6734 C   0  0  2  0  0  0  0  0  0  0  0  0
   -3.1323   -1.1906   -0.7031 C   0  0  0  0  0  0  0  0  0  0  0  0
   -4.1572   -0.8640   -1.2830 O   0  0  0  0  0  0  0  0  0  0  0  0
    0.2351   -0.2223    2.5369 O   0  0  0  0  0  0  0  0  0  0  0  0
   -2.6421    0.8267    0.6937 C   0  0  0  0  0  0  0  0  0  0  0  0
   -1.5324    1.1862    1.6728 C   0  0  0  0  0  0  0  0  0  0  0  0
   -2.2891   -2.0606   -1.2832 O   0  0  0  0  0  0  0  0  0  0  0  0
   -0.3330   -0.6941   -2.7160 H   0  0  0  0  0  0  0  0  0  0  0  0
    3.0425    1.7789    0.9138 H   0  0  0  0  0  0  0  0  0  0  0  0
    3.5835    2.7679   -0.9534 H   0  0  0  0  0  0  0  0  0  0  0  0
    2.8627    2.9197   -2.5377 H   0  0  0  0  0  0  0  0  0  0  0  0
    1.0693    1.5833   -4.2489 H   0  0  0  0  0  0  0  0  0  0  0  0
   -0.5961    1.3793   -3.6790 H   0  0  0  0  0  0  0  0  0  0  0  0
    2.0164    4.5756   -1.5629 H   0  0  0  0  0  0  0  0  0  0  0  0
   -0.4888    3.4464   -3.7358 H   0  0  0  0  0  0  0  0  0  0  0  0
    1.7465   -1.8868    1.5381 H   0  0  0  0  0  0  0  0  0  0  0  0
    2.3100   -2.8193    0.1516 H   0  0  0  0  0  0  0  0  0  0  0  0
    3.3989   -1.6625    0.9142 H   0  0  0  0  0  0  0  0  0  0  0  0
   -1.0177   -2.0213    1.0828 H   0  0  0  0  0  0  0  0  0  0  0  0
   -3.4166   -1.0810    1.4038 H   0  0  0  0  0  0  0  0  0  0  0  0
   -3.6023    1.2587    0.9956 H   0  0  0  0  0  0  0  0  0  0  0  0
   -2.4081    1.2333   -0.2985 H   0  0  0  0  0  0  0  0  0  0  0  0
   -1.9324    1.5074    2.6383 H   0  0  0  0  0  0  0  0  0  0  0  0
   -0.8781    1.9587    1.2589 H   0  0  0  0  0  0  0  0  0  0  0  0
   -2.6932   -2.2589   -2.1527 H   0  0  0  0  0  0  0  0  0  0  0  0
  2  1  2  0  0  0  0
  3  5  2  0  0  0  0
  4  1  1  0  0  0  0
  5  2  1  0  0  0  0
  6  3  1  0  0  0  0
  6  4  2  0  0  0  0
  6 22  1  0  0  0  0
  7  2  1  0  0  0  0
  7 23  1  0  0  0  0
  8  1  1  0  0  0  0
  8 24  1  0  0  0  0
  8 25  1  0  0  0  0
  9  4  1  0  0  0  0
  9 26  1  0  0  0  0
  9 27  1  0  0  0  0
 10  8  1  0  0  0  0
 10 28  1  0  0  0  0
 11  9  1  0  0  0  0
 11 29  1  0  0  0  0
 12  5  1  0  0  0  0
 12 30  1  0  0  0  0
 12 31  1  0  0  0  0
 12 32  1  0  0  0  0
 13 33  1  0  0  0  0
 14 13  1  0  0  0  0
 15 13  1  0  0  0  0
 15 34  1  1  0  0  0
 15 16  1  0  0  0  0
 17 16  2  0  0  0  0
 18 14  2  0  0  0  0
 19 15  1  0  0  0  0
 19 20  1  0  0  0  0
 19 35  1  0  0  0  0
 19 36  1  0  0  0  0
 20 14  1  0  0  0  0
 20 37  1  0  0  0  0
 20 38  1  0  0  0  0
 21 16  1  0  0  0  0
 21 39  1  0  0  0  0
M  END
>  <Mol_ID>
2872

>  <Formula>
C13H18N2O6

>  <MolWeight>
298.29182

>  <Cat>
S5060

>  <Name>
Metadoxine

>  <Synonyms>
Metadoxil, Metasin, pyridoxine-pyrrolidone carboxylat

>  <Target>
5-HT Receptor

>  <Form>
salt

>  <CAS>
74536-44-0

>  <URL>
http://selleckchem.com/products/metadoxine.html

$$$$
