S5073 Donepezil.cdx
 OpenBabel08302520013D

 57 60  0  0  0  0  0  0  0  0999 V2000
    0.2239    2.1952   -2.6857 C   0  0  0  0  0  0  0  0  0  0  0  0
    0.4251    0.8297   -2.6019 C   0  0  0  0  0  0  0  0  0  0  0  0
   -1.1105    2.4924   -2.1971 C   0  0  0  0  0  0  0  0  0  0  0  0
    1.1560    3.0898   -3.1824 C   0  0  0  0  0  0  0  0  0  0  0  0
    1.6668    0.3264   -2.9609 C   0  0  0  0  0  0  0  0  0  0  0  0
   -0.7918    0.1315   -2.0477 C   0  0  0  0  0  0  0  0  0  0  0  0
   -1.9144    1.2040   -2.1598 C   0  0  3  0  0  0  0  0  0  0  0  0
   -1.4721    3.6130   -1.8876 O   0  0  0  0  0  0  0  0  0  0  0  0
    2.3958    2.5949   -3.5909 C   0  0  0  0  0  0  0  0  0  0  0  0
    2.6688    1.2077   -3.4433 C   0  0  0  0  0  0  0  0  0  0  0  0
   -2.9917    1.2797   -1.0662 C   0  0  0  0  0  0  0  0  0  0  0  0
    3.3583    3.3992   -4.1406 O   0  0  0  0  0  0  0  0  0  0  0  0
    3.8495    0.5557   -3.7195 O   0  0  0  0  0  0  0  0  0  0  0  0
   -4.1337    0.2358   -1.1293 C   0  0  0  0  0  0  0  0  0  0  0  0
    3.0701    4.7833   -4.3048 C   0  0  0  0  0  0  0  0  0  0  0  0
    5.0068    1.3296   -4.0178 C   0  0  0  0  0  0  0  0  0  0  0  0
   -5.2558    0.5778   -0.1283 C   0  0  0  0  0  0  0  0  0  0  0  0
   -3.7048   -1.1966   -0.8209 C   0  0  0  0  0  0  0  0  0  0  0  0
   -4.8168    0.4038    1.3324 C   0  0  0  0  0  0  0  0  0  0  0  0
   -3.2349   -1.3431    0.6260 C   0  0  0  0  0  0  0  0  0  0  0  0
   -4.2341   -0.9189    1.6213 N   0  0  0  0  0  0  0  0  0  0  0  0
   -3.5909   -0.9294    2.9566 C   0  0  0  0  0  0  0  0  0  0  0  0
   -4.5292   -0.7534    4.1305 C   0  0  0  0  0  0  0  0  0  0  0  0
   -5.5773   -1.6567    4.3504 C   0  0  0  0  0  0  0  0  0  0  0  0
   -4.3205    0.2805    5.0559 C   0  0  0  0  0  0  0  0  0  0  0  0
   -6.4016   -1.5220    5.4700 C   0  0  0  0  0  0  0  0  0  0  0  0
   -5.1459    0.4136    6.1736 C   0  0  0  0  0  0  0  0  0  0  0  0
   -6.1886   -0.4907    6.3781 C   0  0  0  0  0  0  0  0  0  0  0  0
    0.8724    4.1337   -3.2539 H   0  0  0  0  0  0  0  0  0  0  0  0
    1.8869   -0.7356   -2.8714 H   0  0  0  0  0  0  0  0  0  0  0  0
   -0.6081   -0.1610   -1.0085 H   0  0  0  0  0  0  0  0  0  0  0  0
   -1.0388   -0.7544   -2.6417 H   0  0  0  0  0  0  0  0  0  0  0  0
   -2.3981    1.1240   -3.1424 H   0  0  0  0  0  0  0  0  0  0  0  0
   -2.5141    1.2998   -0.0810 H   0  0  0  0  0  0  0  0  0  0  0  0
   -3.4799    2.2607   -1.1634 H   0  0  0  0  0  0  0  0  0  0  0  0
   -4.5634    0.2657   -2.1392 H   0  0  0  0  0  0  0  0  0  0  0  0
    2.3046    4.9314   -5.0739 H   0  0  0  0  0  0  0  0  0  0  0  0
    2.7794    5.2493   -3.3580 H   0  0  0  0  0  0  0  0  0  0  0  0
    3.9858    5.2785   -4.6413 H   0  0  0  0  0  0  0  0  0  0  0  0
    4.9490    1.7329   -5.0341 H   0  0  0  0  0  0  0  0  0  0  0  0
    5.1861    2.1143   -3.2748 H   0  0  0  0  0  0  0  0  0  0  0  0
    5.8754    0.6637   -3.9836 H   0  0  0  0  0  0  0  0  0  0  0  0
   -5.6091    1.6045   -0.2853 H   0  0  0  0  0  0  0  0  0  0  0  0
   -6.1193   -0.0744   -0.3211 H   0  0  0  0  0  0  0  0  0  0  0  0
   -4.5566   -1.8699   -0.9908 H   0  0  0  0  0  0  0  0  0  0  0  0
   -2.9217   -1.5262   -1.5082 H   0  0  0  0  0  0  0  0  0  0  0  0
   -4.1163    1.2072    1.5898 H   0  0  0  0  0  0  0  0  0  0  0  0
   -5.7064    0.5482    1.9588 H   0  0  0  0  0  0  0  0  0  0  0  0
   -2.9986   -2.4011    0.7931 H   0  0  0  0  0  0  0  0  0  0  0  0
   -2.2986   -0.7875    0.7559 H   0  0  0  0  0  0  0  0  0  0  0  0
   -3.0846   -1.8920    3.1117 H   0  0  0  0  0  0  0  0  0  0  0  0
   -2.8021   -0.1649    2.9948 H   0  0  0  0  0  0  0  0  0  0  0  0
   -5.7490   -2.4702    3.6486 H   0  0  0  0  0  0  0  0  0  0  0  0
   -3.5045    0.9865    4.9206 H   0  0  0  0  0  0  0  0  0  0  0  0
   -7.2094   -2.2319    5.6332 H   0  0  0  0  0  0  0  0  0  0  0  0
   -4.9745    1.2166    6.8869 H   0  0  0  0  0  0  0  0  0  0  0  0
   -6.8296   -0.3903    7.2519 H   0  0  0  0  0  0  0  0  0  0  0  0
  1  2  2  0  0  0  0
  1  3  1  0  0  0  0
  1  4  1  0  0  0  0
  2  5  1  0  0  0  0
  2  6  1  0  0  0  0
  3  7  1  0  0  0  0
  3  8  2  0  0  0  0
  4  9  2  0  0  0  0
  4 29  1  0  0  0  0
  5 10  2  0  0  0  0
  5 30  1  0  0  0  0
  6  7  1  0  0  0  0
  6 31  1  0  0  0  0
  6 32  1  0  0  0  0
  7 11  1  0  0  0  0
  7 33  1  0  0  0  0
  9 12  1  0  0  0  0
  9 10  1  0  0  0  0
 10 13  1  0  0  0  0
 11 14  1  0  0  0  0
 11 34  1  0  0  0  0
 11 35  1  0  0  0  0
 12 15  1  0  0  0  0
 13 16  1  0  0  0  0
 14 17  1  0  0  0  0
 14 18  1  0  0  0  0
 14 36  1  0  0  0  0
 15 37  1  0  0  0  0
 15 38  1  0  0  0  0
 15 39  1  0  0  0  0
 16 40  1  0  0  0  0
 16 41  1  0  0  0  0
 16 42  1  0  0  0  0
 17 19  1  0  0  0  0
 17 43  1  0  0  0  0
 17 44  1  0  0  0  0
 18 20  1  0  0  0  0
 18 45  1  0  0  0  0
 18 46  1  0  0  0  0
 19 21  1  0  0  0  0
 19 47  1  0  0  0  0
 19 48  1  0  0  0  0
 20 21  1  0  0  0  0
 20 49  1  0  0  0  0
 20 50  1  0  0  0  0
 21 22  1  0  0  0  0
 22 23  1  0  0  0  0
 22 51  1  0  0  0  0
 22 52  1  0  0  0  0
 23 24  2  0  0  0  0
 23 25  1  0  0  0  0
 24 26  1  0  0  0  0
 24 53  1  0  0  0  0
 25 27  2  0  0  0  0
 25 54  1  0  0  0  0
 26 28  2  0  0  0  0
 26 55  1  0  0  0  0
 27 28  1  0  0  0  0
 27 56  1  0  0  0  0
 28 57  1  0  0  0  0
M  END
>  <Mol_ID>
2854

>  <Formula>
C24H29NO3

>  <MolWeight>
379.49196

>  <Cat>
S5073

>  <Name>
Donepezil

>  <Synonyms>
Aricept, Donepezilo

>  <Target>
AChR

>  <Form>
free base

>  <CAS>
120014-06-4

>  <URL>
http://selleckchem.com/products/donepezil.html

$$$$
