S5090 4-Isopropylbenzyl Alcohol.cdx
 OpenBabel08302520003D

 25 25  0  0  0  0  0  0  0  0999 V2000
    1.3562   -0.2042    0.0829 C   0  0  0  0  0  0  0  0  0  0  0  0
    0.4703   -1.2898    0.0361 C   0  0  0  0  0  0  0  0  0  0  0  0
    0.8220    1.0925    0.0398 C   0  0  0  0  0  0  0  0  0  0  0  0
    2.8504   -0.4444    0.1998 C   0  0  0  0  0  0  0  0  0  0  0  0
   -0.9098   -1.0876   -0.0496 C   0  0  0  0  0  0  0  0  0  0  0  0
   -0.5565    1.2951   -0.0420 C   0  0  0  0  0  0  0  0  0  0  0  0
    3.6191    0.1426   -0.9869 C   0  0  0  0  0  0  0  0  0  0  0  0
    3.3931    0.0998    1.5242 C   0  0  0  0  0  0  0  0  0  0  0  0
   -1.4383    0.2085   -0.0887 C   0  0  0  0  0  0  0  0  0  0  0  0
   -2.9205    0.4403   -0.2018 C   0  0  0  0  0  0  0  0  0  0  0  0
   -3.4034    1.1738    0.9159 O   0  0  0  0  0  0  0  0  0  0  0  0
    0.8510   -2.3097    0.0667 H   0  0  0  0  0  0  0  0  0  0  0  0
    1.4776    1.9599    0.0717 H   0  0  0  0  0  0  0  0  0  0  0  0
    3.0326   -1.5273    0.1962 H   0  0  0  0  0  0  0  0  0  0  0  0
   -1.5688   -1.9527   -0.0869 H   0  0  0  0  0  0  0  0  0  0  0  0
   -0.9462    2.3122   -0.0681 H   0  0  0  0  0  0  0  0  0  0  0  0
    3.5168    1.2315   -1.0460 H   0  0  0  0  0  0  0  0  0  0  0  0
    4.6874   -0.0861   -0.9052 H   0  0  0  0  0  0  0  0  0  0  0  0
    3.2586   -0.2779   -1.9322 H   0  0  0  0  0  0  0  0  0  0  0  0
    2.8560   -0.3360    2.3742 H   0  0  0  0  0  0  0  0  0  0  0  0
    4.4546   -0.1448    1.6372 H   0  0  0  0  0  0  0  0  0  0  0  0
    3.2939    1.1889    1.5909 H   0  0  0  0  0  0  0  0  0  0  0  0
   -3.1480    0.9964   -1.1173 H   0  0  0  0  0  0  0  0  0  0  0  0
   -3.4685   -0.5068   -0.2401 H   0  0  0  0  0  0  0  0  0  0  0  0
   -2.9195    0.8515    1.6957 H   0  0  0  0  0  0  0  0  0  0  0  0
  1  2  2  0  0  0  0
  1  3  1  0  0  0  0
  1  4  1  0  0  0  0
  2  5  1  0  0  0  0
  2 12  1  0  0  0  0
  3  6  2  0  0  0  0
  3 13  1  0  0  0  0
  4  7  1  0  0  0  0
  4  8  1  0  0  0  0
  4 14  1  0  0  0  0
  5  9  2  0  0  0  0
  5 15  1  0  0  0  0
  6  9  1  0  0  0  0
  6 16  1  0  0  0  0
  7 17  1  0  0  0  0
  7 18  1  0  0  0  0
  7 19  1  0  0  0  0
  8 20  1  0  0  0  0
  8 21  1  0  0  0  0
  8 22  1  0  0  0  0
  9 10  1  0  0  0  0
 10 11  1  0  0  0  0
 10 23  1  0  0  0  0
 10 24  1  0  0  0  0
 11 25  1  0  0  0  0
M  END
>  <Mol_ID>
2803

>  <Formula>
C10H14O

>  <MolWeight>
150.21756

>  <Cat>
S5090

>  <Name>
4-Isopropylbenzyl Alcohol

>  <Synonyms>
Cumic alcohol, Cuminyl alcohol, Cuminic alcohol

>  <Target>
Others

>  <Form>
free base

>  <CAS>
536-60-7

>  <URL>
http://selleckchem.com/products/4-isopropylbenzyl-alcohol.html

$$$$
