S5098 Gefitinib hydrochloride.cdx
 OpenBabel08302521403D

 55 58  0  0  0  0  0  0  0  0999 V2000
    0.0122    1.0083   -0.0589 C   0  0  0  0  0  0  0  0  0  0  0  0
   -1.2446    1.5800    0.1837 C   0  0  0  0  0  0  0  0  0  0  0  0
   -0.0162   -0.3230   -0.4565 C   0  0  0  0  0  0  0  0  0  0  0  0
    1.2728    1.6575    0.1005 C   0  0  0  0  0  0  0  0  0  0  0  0
   -1.3527    2.9916    0.3223 N   0  0  0  0  0  0  0  0  0  0  0  0
   -2.3787    0.8513    0.1794 N   0  0  0  0  0  0  0  0  0  0  0  0
    1.1730   -0.8924   -0.8844 C   0  0  0  0  0  0  0  0  0  0  0  0
   -1.1367   -1.0600   -0.4769 N   0  0  0  0  0  0  0  0  0  0  0  0
    2.4871    1.0397   -0.2390 C   0  0  0  0  0  0  0  0  0  0  0  0
   -2.4293    3.6367    0.9714 C   0  0  0  0  0  0  0  0  0  0  0  0
   -2.2637   -0.4426   -0.1146 C   0  0  0  0  0  0  0  0  0  0  0  0
    2.4090   -0.2054   -0.8761 C   0  0  0  0  0  0  0  0  0  0  0  0
    3.5744    1.7568    0.1984 O   0  0  0  0  0  0  0  0  0  0  0  0
   -2.9428    3.1190    2.1707 C   0  0  0  0  0  0  0  0  0  0  0  0
   -2.9444    4.8479    0.4824 C   0  0  0  0  0  0  0  0  0  0  0  0
    3.5106   -0.7615   -1.4798 O   0  0  0  0  0  0  0  0  0  0  0  0
    4.8454    1.6351   -0.4363 C   0  0  0  0  0  0  0  0  0  0  0  0
   -3.9795    3.7605    2.8492 C   0  0  0  0  0  0  0  0  0  0  0  0
   -3.9816    5.4988    1.1557 C   0  0  0  0  0  0  0  0  0  0  0  0
    3.2019   -1.6298   -2.5856 C   0  0  0  0  0  0  0  0  0  0  0  0
    5.8664    2.6525    0.1551 C   0  0  0  0  0  0  0  0  0  0  0  0
   -4.4961    4.9429    2.3279 C   0  0  0  0  0  0  0  0  0  0  0  0
    6.3651    2.4149    1.6070 C   0  0  0  0  0  0  0  0  0  0  0  0
   -5.4851    5.5692    2.9757 F   0  0  0  0  0  0  0  0  0  0  0  0
    7.5560    3.2332    1.9670 N   0  0  0  0  0  0  0  0  0  0  0  0
    8.0725    2.9475    3.3316 C   0  0  0  0  0  0  0  0  0  0  0  0
    7.3776    4.6991    1.8706 C   0  0  0  0  0  0  0  0  0  0  0  0
    7.2727    3.6048    4.4747 C   0  0  0  0  0  0  0  0  0  0  0  0
    6.5574    5.3113    3.0174 C   0  0  0  0  0  0  0  0  0  0  0  0
    7.1501    5.0205    4.2891 O   0  0  0  0  0  0  0  0  0  0  0  0
    1.3018    2.6565    0.5330 H   0  0  0  0  0  0  0  0  0  0  0  0
   -1.1526    3.4020   -0.5865 H   0  0  0  0  0  0  0  0  0  0  0  0
    1.1032   -1.9152   -1.2435 H   0  0  0  0  0  0  0  0  0  0  0  0
   -3.1677   -1.0406   -0.0658 H   0  0  0  0  0  0  0  0  0  0  0  0
   -2.5338    2.1990    2.5838 H   0  0  0  0  0  0  0  0  0  0  0  0
   -2.5563    5.2886   -0.4318 H   0  0  0  0  0  0  0  0  0  0  0  0
    5.2442    0.6203   -0.3599 H   0  0  0  0  0  0  0  0  0  0  0  0
    4.7108    1.8962   -1.4937 H   0  0  0  0  0  0  0  0  0  0  0  0
   -4.3738    3.3537    3.7697 H   0  0  0  0  0  0  0  0  0  0  0  0
   -4.4004    6.4304    0.7769 H   0  0  0  0  0  0  0  0  0  0  0  0
    2.9550   -2.6357   -2.2259 H   0  0  0  0  0  0  0  0  0  0  0  0
    2.3849   -1.2402   -3.2090 H   0  0  0  0  0  0  0  0  0  0  0  0
    4.0833   -1.7131   -3.2273 H   0  0  0  0  0  0  0  0  0  0  0  0
    6.7409    2.6575   -0.5078 H   0  0  0  0  0  0  0  0  0  0  0  0
    5.4108    3.6485    0.1112 H   0  0  0  0  0  0  0  0  0  0  0  0
    5.5469    2.5762    2.3166 H   0  0  0  0  0  0  0  0  0  0  0  0
    6.6628    1.3615    1.6871 H   0  0  0  0  0  0  0  0  0  0  0  0
    9.0963    3.3479    3.3784 H   0  0  0  0  0  0  0  0  0  0  0  0
    8.1660    1.8697    3.5030 H   0  0  0  0  0  0  0  0  0  0  0  0
    8.3821    5.1463    1.9070 H   0  0  0  0  0  0  0  0  0  0  0  0
    6.9664    4.9948    0.9023 H   0  0  0  0  0  0  0  0  0  0  0  0
    6.2736    3.1680    4.5717 H   0  0  0  0  0  0  0  0  0  0  0  0
    7.7937    3.4518    5.4269 H   0  0  0  0  0  0  0  0  0  0  0  0
    6.5366    6.4015    2.9134 H   0  0  0  0  0  0  0  0  0  0  0  0
    5.5217    4.9563    3.0099 H   0  0  0  0  0  0  0  0  0  0  0  0
  1  2  1  0  0  0  0
  1  3  1  0  0  0  0
  1  4  2  0  0  0  0
  2  5  1  0  0  0  0
  2  6  2  0  0  0  0
  3  7  2  0  0  0  0
  3  8  1  0  0  0  0
  4  9  1  0  0  0  0
  4 31  1  0  0  0  0
  5 10  1  0  0  0  0
  5 32  1  0  0  0  0
  6 11  1  0  0  0  0
  7 12  1  0  0  0  0
  7 33  1  0  0  0  0
  8 11  2  0  0  0  0
  9 13  1  0  0  0  0
  9 12  2  0  0  0  0
 10 14  2  0  0  0  0
 10 15  1  0  0  0  0
 11 34  1  0  0  0  0
 12 16  1  0  0  0  0
 13 17  1  0  0  0  0
 14 18  1  0  0  0  0
 14 35  1  0  0  0  0
 15 19  2  0  0  0  0
 15 36  1  0  0  0  0
 16 20  1  0  0  0  0
 17 21  1  0  0  0  0
 17 37  1  0  0  0  0
 17 38  1  0  0  0  0
 18 22  2  0  0  0  0
 18 39  1  0  0  0  0
 19 22  1  0  0  0  0
 19 40  1  0  0  0  0
 20 41  1  0  0  0  0
 20 42  1  0  0  0  0
 20 43  1  0  0  0  0
 21 23  1  0  0  0  0
 21 44  1  0  0  0  0
 21 45  1  0  0  0  0
 22 24  1  0  0  0  0
 23 25  1  0  0  0  0
 23 46  1  0  0  0  0
 23 47  1  0  0  0  0
 25 26  1  0  0  0  0
 25 27  1  0  0  0  0
 26 28  1  0  0  0  0
 26 48  1  0  0  0  0
 26 49  1  0  0  0  0
 27 29  1  0  0  0  0
 27 50  1  0  0  0  0
 27 51  1  0  0  0  0
 28 30  1  0  0  0  0
 28 52  1  0  0  0  0
 28 53  1  0  0  0  0
 29 30  1  0  0  0  0
 29 54  1  0  0  0  0
 29 55  1  0  0  0  0
M  END
>  <Mol_ID>
8258

>  <Formula>
C22H25Cl2FN4O3

>  <MolWeight>
483.3633032

>  <Cat>
S5098

>  <Name>
Gefitinib hydrochloride

>  <Synonyms>
ZD1839 hydrochloride

>  <Target>
EGFR

>  <Form>
hydrochloride

>  <CAS>
184475-55-6

>  <URL>
http://selleckchem.com/products/gefitinib-hydrochloride.html

$$$$
