S5114 Hydroquinine.cdx
 OpenBabel08302520003D

 50 53  0  0  0  0  0  0  0  0999 V2000
   -2.7608   -4.7864   -1.5208 C   0  0  0  0  0  0  0  0  0  0  0  0
   -2.1530   -3.5057   -1.3230 C   0  0  0  0  0  0  0  0  0  0  0  0
   -3.4496   -4.9902   -2.7500 C   0  0  0  0  0  0  0  0  0  0  0  0
   -2.7514   -5.8677   -0.6018 C   0  0  0  0  0  0  0  0  0  0  0  0
   -1.3551   -3.0570   -0.0963 C   0  0  2  0  0  0  0  0  0  0  0  0
   -2.2638   -2.5584   -2.3586 C   0  0  0  0  0  0  0  0  0  0  0  0
   -4.0792   -6.2023   -2.9912 C   0  0  0  0  0  0  0  0  0  0  0  0
   -3.5252   -4.0712   -3.7164 N   0  0  0  0  0  0  0  0  0  0  0  0
   -3.4053   -7.0845   -0.8604 C   0  0  0  0  0  0  0  0  0  0  0  0
    0.1642   -3.4299   -0.1631 C   0  0  1  0  0  0  0  0  0  0  0  0
   -1.9586   -3.5518    1.1022 O   0  0  0  0  0  0  0  0  0  0  0  0
   -2.9350   -2.8830   -3.5105 C   0  0  0  0  0  0  0  0  0  0  0  0
   -4.0775   -7.2461   -2.0628 C   0  0  0  0  0  0  0  0  0  0  0  0
   -3.3172   -8.0140    0.1378 O   0  0  0  0  0  0  0  0  0  0  0  0
    0.8844   -2.9532   -1.3875 N   0  0  3  0  0  0  0  0  0  0  0  0
    0.9436   -2.9994    1.1149 C   0  0  0  0  0  0  0  0  0  0  0  0
    1.1853   -1.5056   -1.3453 C   0  0  0  0  0  0  0  0  0  0  0  0
    2.1810   -3.6626   -1.4630 C   0  0  0  0  0  0  0  0  0  0  0  0
    2.3092   -2.3957    0.7085 C   0  0  3  0  0  0  0  0  0  0  0  0
    1.9657   -1.1036   -0.0734 C   0  0  1  0  0  0  0  0  0  0  0  0
    2.9958   -3.4492   -0.1795 C   0  0  0  0  0  0  0  0  0  0  0  0
    3.1304   -0.1611   -0.4269 C   0  0  0  0  0  0  0  0  0  0  0  0
    3.9468    0.3157    0.7654 C   0  0  0  0  0  0  0  0  0  0  0  0
   -3.9750   -9.2589   -0.0741 C   0  0  0  0  0  0  0  0  0  0  0  0
   -2.2380   -5.7711    0.3503 H   0  0  0  0  0  0  0  0  0  0  0  0
   -1.4454   -1.9655   -0.0234 H   0  0  0  0  0  0  0  0  0  0  0  0
   -1.8103   -1.5767   -2.2715 H   0  0  0  0  0  0  0  0  0  0  0  0
   -4.5998   -6.3378   -3.9368 H   0  0  0  0  0  0  0  0  0  0  0  0
    0.1859   -4.5298   -0.1795 H   0  0  0  0  0  0  0  0  0  0  0  0
   -1.6286   -3.0155    1.8407 H   0  0  0  0  0  0  0  0  0  0  0  0
   -3.0168   -2.1743   -4.3298 H   0  0  0  0  0  0  0  0  0  0  0  0
   -4.6026   -8.1592   -2.3194 H   0  0  0  0  0  0  0  0  0  0  0  0
    0.3889   -2.2627    1.7081 H   0  0  0  0  0  0  0  0  0  0  0  0
    1.1052   -3.8723    1.7597 H   0  0  0  0  0  0  0  0  0  0  0  0
    0.2645   -0.9170   -1.4127 H   0  0  0  0  0  0  0  0  0  0  0  0
    1.7498   -1.2419   -2.2508 H   0  0  0  0  0  0  0  0  0  0  0  0
    2.0126   -4.7323   -1.6401 H   0  0  0  0  0  0  0  0  0  0  0  0
    2.7508   -3.3119   -2.3328 H   0  0  0  0  0  0  0  0  0  0  0  0
    2.9060   -2.1865    1.6015 H   0  0  0  0  0  0  0  0  0  0  0  0
    1.2825   -0.5153    0.5564 H   0  0  0  0  0  0  0  0  0  0  0  0
    4.0235   -3.1611   -0.4206 H   0  0  0  0  0  0  0  0  0  0  0  0
    3.0487   -4.3998    0.3691 H   0  0  0  0  0  0  0  0  0  0  0  0
    3.8011   -0.6263   -1.1582 H   0  0  0  0  0  0  0  0  0  0  0  0
    2.7086    0.7290   -0.9134 H   0  0  0  0  0  0  0  0  0  0  0  0
    4.4892   -0.5089    1.2340 H   0  0  0  0  0  0  0  0  0  0  0  0
    4.6889    1.0532    0.4382 H   0  0  0  0  0  0  0  0  0  0  0  0
    3.3122    0.7927    1.5188 H   0  0  0  0  0  0  0  0  0  0  0  0
   -5.0573   -9.1265   -0.1786 H   0  0  0  0  0  0  0  0  0  0  0  0
   -3.5567   -9.7866   -0.9378 H   0  0  0  0  0  0  0  0  0  0  0  0
   -3.8015   -9.8809    0.8095 H   0  0  0  0  0  0  0  0  0  0  0  0
  1  2  1  0  0  0  0
  1  3  1  0  0  0  0
  1  4  2  0  0  0  0
  2  6  2  0  0  0  0
  3  7  2  0  0  0  0
  3  8  1  0  0  0  0
  4  9  1  0  0  0  0
  4 25  1  0  0  0  0
  5 26  1  1  0  0  0
  5 11  1  0  0  0  0
  5  2  1  0  0  0  0
  6 12  1  0  0  0  0
  6 27  1  0  0  0  0
  7 13  1  0  0  0  0
  7 28  1  0  0  0  0
  8 12  2  0  0  0  0
  9 14  1  0  0  0  0
  9 13  2  0  0  0  0
 10  5  1  0  0  0  0
 10 15  1  0  0  0  0
 10 16  1  0  0  0  0
 10 29  1  6  0  0  0
 11 30  1  0  0  0  0
 12 31  1  0  0  0  0
 13 32  1  0  0  0  0
 14 24  1  0  0  0  0
 15 17  1  0  0  0  0
 15 18  1  0  0  0  0
 16 19  1  0  0  0  0
 16 33  1  0  0  0  0
 16 34  1  0  0  0  0
 17 20  1  0  0  0  0
 17 35  1  0  0  0  0
 17 36  1  0  0  0  0
 18 21  1  0  0  0  0
 18 37  1  0  0  0  0
 18 38  1  0  0  0  0
 19 20  1  0  0  0  0
 19 21  1  0  0  0  0
 19 39  1  0  0  0  0
 20 40  1  1  0  0  0
 20 22  1  0  0  0  0
 21 41  1  0  0  0  0
 21 42  1  0  0  0  0
 22 23  1  0  0  0  0
 22 43  1  0  0  0  0
 22 44  1  0  0  0  0
 23 45  1  0  0  0  0
 23 46  1  0  0  0  0
 23 47  1  0  0  0  0
 24 48  1  0  0  0  0
 24 49  1  0  0  0  0
 24 50  1  0  0  0  0
M  END
>  <Mol_ID>
2773

>  <Formula>
C20H26N2O2

>  <MolWeight>
326.43264

>  <Cat>
S5114

>  <Name>
Hydroquinine

>  <Synonyms>
Dihydroquinine

>  <Target>
Others

>  <Form>
free base

>  <CAS>
522-66-7

>  <URL>
http://selleckchem.com/products/hydroquinine.html

$$$$
