S5124 DL-Citrulline.cdx
 OpenBabel08302521383D

 25 24  0  0  0  0  0  0  0  0999 V2000
    0.9984    0.0805   -0.0558 C   0  0  0  0  0  0  0  0  0  0  0  0
    0.4851   -0.4843    1.2743 C   0  0  0  0  0  0  0  0  0  0  0  0
    0.4728   -0.6889   -1.2775 C   0  0  3  0  0  0  0  0  0  0  0  0
    0.9891    0.3261    2.4669 C   0  0  0  0  0  0  0  0  0  0  0  0
    1.0070   -0.0348   -2.5674 C   0  0  0  0  0  0  0  0  0  0  0  0
    0.8328   -2.1174   -1.1904 N   0  0  0  0  0  0  0  0  0  0  0  0
    0.5775   -0.2684    3.7233 N   0  0  0  0  0  0  0  0  0  0  0  0
    1.7551   -0.8668   -3.3298 O   0  0  0  0  0  0  0  0  0  0  0  0
    0.7991    1.1262   -2.8889 O   0  0  0  0  0  0  0  0  0  0  0  0
   -0.6057    0.0548    4.3168 C   0  0  0  0  0  0  0  0  0  0  0  0
   -0.8215   -0.6632    5.4479 N   0  0  0  0  0  0  0  0  0  0  0  0
   -1.4043    0.8879    3.9191 O   0  0  0  0  0  0  0  0  0  0  0  0
    2.0968    0.0795   -0.0584 H   0  0  0  0  0  0  0  0  0  0  0  0
    0.6959    1.1330   -0.1372 H   0  0  0  0  0  0  0  0  0  0  0  0
   -0.6114   -0.5009    1.2720 H   0  0  0  0  0  0  0  0  0  0  0  0
    0.8158   -1.5234    1.3923 H   0  0  0  0  0  0  0  0  0  0  0  0
   -0.6206   -0.6257   -1.3204 H   0  0  0  0  0  0  0  0  0  0  0  0
    2.0837    0.3513    2.4757 H   0  0  0  0  0  0  0  0  0  0  0  0
    0.6214    1.3567    2.4143 H   0  0  0  0  0  0  0  0  0  0  0  0
    0.4026   -2.6971   -1.9054 H   0  0  0  0  0  0  0  0  0  0  0  0
    1.8170   -2.2982   -1.0198 H   0  0  0  0  0  0  0  0  0  0  0  0
    0.9441   -1.1808    3.9528 H   0  0  0  0  0  0  0  0  0  0  0  0
    1.8093   -1.7442   -2.9094 H   0  0  0  0  0  0  0  0  0  0  0  0
   -1.6299   -0.3428    5.9669 H   0  0  0  0  0  0  0  0  0  0  0  0
   -0.0117   -0.8618    6.0166 H   0  0  0  0  0  0  0  0  0  0  0  0
  1  2  1  0  0  0  0
  1  3  1  0  0  0  0
  1 13  1  0  0  0  0
  1 14  1  0  0  0  0
  2  4  1  0  0  0  0
  2 15  1  0  0  0  0
  2 16  1  0  0  0  0
  3  5  1  0  0  0  0
  3  6  1  0  0  0  0
  3 17  1  0  0  0  0
  4  7  1  0  0  0  0
  4 18  1  0  0  0  0
  4 19  1  0  0  0  0
  5  8  1  0  0  0  0
  5  9  2  0  0  0  0
  6 20  1  0  0  0  0
  6 21  1  0  0  0  0
  7 10  1  0  0  0  0
  7 22  1  0  0  0  0
  8 23  1  0  0  0  0
 10 11  1  0  0  0  0
 10 12  2  0  0  0  0
 11 24  1  0  0  0  0
 11 25  1  0  0  0  0
M  END
>  <Mol_ID>
7804

>  <Formula>
C6H13N3O3

>  <MolWeight>
175.18572

>  <Cat>
S5124

>  <Name>
DL-Citrulline

>  <Synonyms>
Citrulline

>  <Target>
Others

>  <Form>
free base

>  <CAS>
627-77-0

>  <URL>
http://selleckchem.com/products/dl-citrulline.html

$$$$
