S5131 Homotaurine.cdx
 OpenBabel08302521383D

 17 16  0  0  0  0  0  0  0  0999 V2000
    1.0767   -0.0141    0.0825 C   0  0  0  0  0  0  0  0  0  0  0  0
    0.4892   -1.6726    0.3612 S   0  0  0  0  0  0  0  0  0  0  0  0
    0.5824    0.9427    1.1598 C   0  0  0  0  0  0  0  0  0  0  0  0
    1.2031   -2.3546   -0.9186 O   0  0  0  0  0  0  0  0  0  0  0  0
    1.0896   -2.2120    1.5608 O   0  0  0  0  0  0  0  0  0  0  0  0
   -0.9275   -1.7240    0.0963 O   0  0  0  0  0  0  0  0  0  0  0  0
    1.0536    2.3714    0.9051 C   0  0  0  0  0  0  0  0  0  0  0  0
    2.5081    2.4482    0.8940 N   0  0  0  0  0  0  0  0  0  0  0  0
    0.7149    0.2923   -0.9038 H   0  0  0  0  0  0  0  0  0  0  0  0
    2.1700   -0.0696    0.0645 H   0  0  0  0  0  0  0  0  0  0  0  0
   -0.5138    0.9307    1.1896 H   0  0  0  0  0  0  0  0  0  0  0  0
    0.9216    0.6051    2.1467 H   0  0  0  0  0  0  0  0  0  0  0  0
    0.5245   -2.4833   -1.6155 H   0  0  0  0  0  0  0  0  0  0  0  0
    0.6686    2.7238   -0.0579 H   0  0  0  0  0  0  0  0  0  0  0  0
    0.6584    3.0348    1.6813 H   0  0  0  0  0  0  0  0  0  0  0  0
    2.7981    3.4140    0.7411 H   0  0  0  0  0  0  0  0  0  0  0  0
    2.8755    2.1891    1.8107 H   0  0  0  0  0  0  0  0  0  0  0  0
  1  2  1  0  0  0  0
  1  3  1  0  0  0  0
  1  9  1  0  0  0  0
  1 10  1  0  0  0  0
  2  4  1  0  0  0  0
  2  5  2  0  0  0  0
  2  6  2  0  0  0  0
  3  7  1  0  0  0  0
  3 11  1  0  0  0  0
  3 12  1  0  0  0  0
  4 13  1  0  0  0  0
  7  8  1  0  0  0  0
  7 14  1  0  0  0  0
  7 15  1  0  0  0  0
  8 16  1  0  0  0  0
  8 17  1  0  0  0  0
M  END
>  <Mol_ID>
7802

>  <Formula>
C3H9NO3S

>  <MolWeight>
139.17346

>  <Cat>
S5131

>  <Name>
Homotaurine

>  <Synonyms>
Tramiprosate, Alzhemed, 3-Amino-1-propanesulfonic acid

>  <Target>
GABA Receptor

>  <Form>
free base

>  <CAS>
3687-18-1

>  <URL>
http://selleckchem.com/products/homotaurine.html

$$$$
