S5135 Hydroferulic acid.cdx
 OpenBabel08302520003D

 26 26  0  0  0  0  0  0  0  0999 V2000
   -1.2479   -1.0977   -0.0293 C   0  0  0  0  0  0  0  0  0  0  0  0
    0.1549   -1.1753    0.0483 C   0  0  0  0  0  0  0  0  0  0  0  0
   -1.8484    0.1617   -0.1972 C   0  0  0  0  0  0  0  0  0  0  0  0
   -2.1265   -2.3276    0.0218 C   0  0  0  0  0  0  0  0  0  0  0  0
    0.9373   -0.0196    0.0210 C   0  0  0  0  0  0  0  0  0  0  0  0
   -1.0740    1.3211   -0.2238 C   0  0  0  0  0  0  0  0  0  0  0  0
   -1.6305   -3.4894    0.8831 C   0  0  0  0  0  0  0  0  0  0  0  0
    0.3042    1.2201   -0.1007 C   0  0  0  0  0  0  0  0  0  0  0  0
    2.3058    0.0320    0.1010 O   0  0  0  0  0  0  0  0  0  0  0  0
   -1.3677   -3.1142    2.3218 C   0  0  0  0  0  0  0  0  0  0  0  0
    1.0414    2.3726   -0.0967 O   0  0  0  0  0  0  0  0  0  0  0  0
    2.9828   -1.2128    0.2402 C   0  0  0  0  0  0  0  0  0  0  0  0
   -2.4712   -2.7401    3.0028 O   0  0  0  0  0  0  0  0  0  0  0  0
   -0.2650   -3.1871    2.8430 O   0  0  0  0  0  0  0  0  0  0  0  0
    0.6273   -2.1462    0.1452 H   0  0  0  0  0  0  0  0  0  0  0  0
   -2.9277    0.2535   -0.2988 H   0  0  0  0  0  0  0  0  0  0  0  0
   -3.1210   -2.0331    0.3813 H   0  0  0  0  0  0  0  0  0  0  0  0
   -2.2615   -2.6858   -1.0067 H   0  0  0  0  0  0  0  0  0  0  0  0
   -1.5394    2.2960   -0.3321 H   0  0  0  0  0  0  0  0  0  0  0  0
   -2.3600   -4.3069    0.8747 H   0  0  0  0  0  0  0  0  0  0  0  0
   -0.7056   -3.9076    0.4700 H   0  0  0  0  0  0  0  0  0  0  0  0
    1.9616    2.0766    0.0482 H   0  0  0  0  0  0  0  0  0  0  0  0
    2.7426   -1.6840    1.1991 H   0  0  0  0  0  0  0  0  0  0  0  0
    2.7631   -1.8833   -0.5977 H   0  0  0  0  0  0  0  0  0  0  0  0
    4.0582   -1.0115    0.2242 H   0  0  0  0  0  0  0  0  0  0  0  0
   -3.2948   -2.7447    2.4827 H   0  0  0  0  0  0  0  0  0  0  0  0
  1  2  2  0  0  0  0
  1  3  1  0  0  0  0
  1  4  1  0  0  0  0
  2  5  1  0  0  0  0
  2 15  1  0  0  0  0
  3  6  2  0  0  0  0
  3 16  1  0  0  0  0
  4  7  1  0  0  0  0
  4 17  1  0  0  0  0
  4 18  1  0  0  0  0
  5  8  2  0  0  0  0
  5  9  1  0  0  0  0
  6  8  1  0  0  0  0
  6 19  1  0  0  0  0
  7 10  1  0  0  0  0
  7 20  1  0  0  0  0
  7 21  1  0  0  0  0
  8 11  1  0  0  0  0
  9 12  1  0  0  0  0
 10 13  1  0  0  0  0
 10 14  2  0  0  0  0
 11 22  1  0  0  0  0
 12 23  1  0  0  0  0
 12 24  1  0  0  0  0
 12 25  1  0  0  0  0
 13 26  1  0  0  0  0
M  END
>  <Mol_ID>
2785

>  <Formula>
C10H12O4

>  <MolWeight>
196.19988

>  <Cat>
S5135

>  <Name>
Hydroferulic acid

>  <Synonyms>
Dihydroferulic acid, Dihydroconiferylic acid

>  <Target>
Others

>  <Form>
free base

>  <CAS>
1135-23-5

>  <URL>
http://selleckchem.com/products/hydroferulic-acid.html

$$$$
