S5143 Citropten.cdx
 OpenBabel08302520003D

 25 26  0  0  0  0  0  0  0  0999 V2000
    0.4914   -0.8416   -0.0303 C   0  0  0  0  0  0  0  0  0  0  0  0
    0.2710    0.5482   -0.0558 C   0  0  0  0  0  0  0  0  0  0  0  0
    1.8300   -1.2700    0.0391 C   0  0  0  0  0  0  0  0  0  0  0  0
   -0.7168   -1.6670   -0.0921 C   0  0  0  0  0  0  0  0  0  0  0  0
    1.2948    1.4975   -0.0450 C   0  0  0  0  0  0  0  0  0  0  0  0
   -1.0313    1.1059   -0.0788 O   0  0  0  0  0  0  0  0  0  0  0  0
    2.8621   -0.3014    0.0562 C   0  0  0  0  0  0  0  0  0  0  0  0
    2.3665   -2.5267    0.1030 O   0  0  0  0  0  0  0  0  0  0  0  0
   -1.9401   -1.1277   -0.0964 C   0  0  0  0  0  0  0  0  0  0  0  0
    2.6086    1.0711    0.0074 C   0  0  0  0  0  0  0  0  0  0  0  0
   -2.1615    0.3185   -0.0557 C   0  0  0  0  0  0  0  0  0  0  0  0
    1.5545   -3.6819    0.1277 C   0  0  0  0  0  0  0  0  0  0  0  0
    3.7105    1.8795    0.0222 O   0  0  0  0  0  0  0  0  0  0  0  0
   -3.2952    0.7850   -0.0226 O   0  0  0  0  0  0  0  0  0  0  0  0
    3.4683    3.2830   -0.0285 C   0  0  0  0  0  0  0  0  0  0  0  0
   -0.6608   -2.7404   -0.1525 H   0  0  0  0  0  0  0  0  0  0  0  0
    1.0250    2.5470   -0.0763 H   0  0  0  0  0  0  0  0  0  0  0  0
    3.8981   -0.6372    0.1101 H   0  0  0  0  0  0  0  0  0  0  0  0
   -2.8328   -1.7391   -0.1402 H   0  0  0  0  0  0  0  0  0  0  0  0
    0.8808   -3.6787    0.9897 H   0  0  0  0  0  0  0  0  0  0  0  0
    1.0272   -3.8044   -0.8230 H   0  0  0  0  0  0  0  0  0  0  0  0
    2.2084   -4.5523    0.2407 H   0  0  0  0  0  0  0  0  0  0  0  0
    2.9485    3.5611   -0.9521 H   0  0  0  0  0  0  0  0  0  0  0  0
    2.9100    3.6168    0.8529 H   0  0  0  0  0  0  0  0  0  0  0  0
    4.4348    3.7949   -0.0245 H   0  0  0  0  0  0  0  0  0  0  0  0
  1  2  1  0  0  0  0
  1  3  2  0  0  0  0
  1  4  1  0  0  0  0
  2  5  2  0  0  0  0
  2  6  1  0  0  0  0
  3  7  1  0  0  0  0
  3  8  1  0  0  0  0
  4  9  2  0  0  0  0
  4 16  1  0  0  0  0
  5 10  1  0  0  0  0
  5 17  1  0  0  0  0
  6 11  1  0  0  0  0
  7 10  2  0  0  0  0
  7 18  1  0  0  0  0
  8 12  1  0  0  0  0
  9 11  1  0  0  0  0
  9 19  1  0  0  0  0
 10 13  1  0  0  0  0
 11 14  2  0  0  0  0
 12 20  1  0  0  0  0
 12 21  1  0  0  0  0
 12 22  1  0  0  0  0
 13 15  1  0  0  0  0
 15 23  1  0  0  0  0
 15 24  1  0  0  0  0
 15 25  1  0  0  0  0
M  END
>  <Mol_ID>
2751

>  <Formula>
C11H10O4

>  <MolWeight>
206.1947

>  <Cat>
S5143

>  <Name>
Citropten

>  <Synonyms>
5,7-Dimethoxycoumarin, Citroptene, Limettin, Limetin

>  <Target>
Others

>  <Form>
free base

>  <CAS>
487-06-9

>  <URL>
http://selleckchem.com/products/citropten.html

$$$$
