S5156 4-Methoxysalicylaldehyde.cdx
 OpenBabel08302520013D

 19 19  0  0  0  0  0  0  0  0999 V2000
    0.8809   -0.0767    0.0111 C   0  0  0  0  0  0  0  0  0  0  0  0
    0.1317   -1.2567    0.0086 C   0  0  0  0  0  0  0  0  0  0  0  0
    0.2239    1.1576    0.0071 C   0  0  0  0  0  0  0  0  0  0  0  0
    2.2460    0.0086    0.0160 O   0  0  0  0  0  0  0  0  0  0  0  0
   -1.2657   -1.1936   -0.0044 C   0  0  0  0  0  0  0  0  0  0  0  0
   -1.1706    1.2215   -0.0053 C   0  0  0  0  0  0  0  0  0  0  0  0
    2.9726   -1.2134    0.0217 C   0  0  0  0  0  0  0  0  0  0  0  0
   -1.9183    0.0416   -0.0140 C   0  0  0  0  0  0  0  0  0  0  0  0
   -1.9989   -2.3488   -0.0078 O   0  0  0  0  0  0  0  0  0  0  0  0
   -3.3933    0.1140   -0.0363 C   0  0  0  0  0  0  0  0  0  0  0  0
   -3.9884    1.1858   -0.0447 O   0  0  0  0  0  0  0  0  0  0  0  0
    0.6199   -2.2240    0.0161 H   0  0  0  0  0  0  0  0  0  0  0  0
    0.8035    2.0783    0.0130 H   0  0  0  0  0  0  0  0  0  0  0  0
   -1.6676    2.1894   -0.0100 H   0  0  0  0  0  0  0  0  0  0  0  0
    2.7748   -1.7826    0.9359 H   0  0  0  0  0  0  0  0  0  0  0  0
    2.7521   -1.8087   -0.8706 H   0  0  0  0  0  0  0  0  0  0  0  0
    4.0391   -0.9697    0.0039 H   0  0  0  0  0  0  0  0  0  0  0  0
   -1.3998   -3.1147    0.0061 H   0  0  0  0  0  0  0  0  0  0  0  0
   -3.9437   -0.8409   -0.0470 H   0  0  0  0  0  0  0  0  0  0  0  0
  1  2  2  0  0  0  0
  1  3  1  0  0  0  0
  1  4  1  0  0  0  0
  2  5  1  0  0  0  0
  2 12  1  0  0  0  0
  3  6  2  0  0  0  0
  3 13  1  0  0  0  0
  4  7  1  0  0  0  0
  5  8  2  0  0  0  0
  5  9  1  0  0  0  0
  6  8  1  0  0  0  0
  6 14  1  0  0  0  0
  7 15  1  0  0  0  0
  7 16  1  0  0  0  0
  7 17  1  0  0  0  0
  8 10  1  0  0  0  0
  9 18  1  0  0  0  0
 10 11  2  0  0  0  0
 10 19  1  0  0  0  0
M  END
>  <Mol_ID>
2973

>  <Formula>
C8H8O3

>  <MolWeight>
152.14732

>  <Cat>
S5156

>  <Name>
4-Methoxysalicylaldehyde

>  <Synonyms>
2-Hydroxy-4-methoxybenzaldehyde

>  <Target>
Others

>  <Form>
free base

>  <CAS>
673-22-3

>  <URL>
http://selleckchem.com/products/4-methoxysalicylaldehyde.html

$$$$
