S5158 alpha-Naphthoflavone.cdx
 OpenBabel08302520013D

 33 36  0  0  0  0  0  0  0  0999 V2000
    0.7644   -0.3530    0.0041 C   0  0  0  0  0  0  0  0  0  0  0  0
   -0.6530   -0.3978    0.0019 C   0  0  0  0  0  0  0  0  0  0  0  0
    1.4201    0.8816   -0.0055 C   0  0  0  0  0  0  0  0  0  0  0  0
    1.4692   -1.5460    0.0196 O   0  0  0  0  0  0  0  0  0  0  0  0
   -1.3748    0.8277   -0.0031 C   0  0  0  0  0  0  0  0  0  0  0  0
   -1.3954   -1.5981    0.0045 C   0  0  0  0  0  0  0  0  0  0  0  0
    2.8884    0.9230   -0.0079 C   0  0  0  0  0  0  0  0  0  0  0  0
    0.7038    2.0792   -0.0110 C   0  0  0  0  0  0  0  0  0  0  0  0
    2.8524   -1.4892    0.0286 C   0  0  0  0  0  0  0  0  0  0  0  0
   -0.6871    2.0485   -0.0080 C   0  0  0  0  0  0  0  0  0  0  0  0
   -2.7780    0.8181   -0.0033 C   0  0  0  0  0  0  0  0  0  0  0  0
   -2.7944   -1.5886    0.0029 C   0  0  0  0  0  0  0  0  0  0  0  0
    3.5807   -0.3661    0.0144 C   0  0  0  0  0  0  0  0  0  0  0  0
    3.5170    1.9724   -0.0251 O   0  0  0  0  0  0  0  0  0  0  0  0
    3.5631   -2.7734    0.0700 C   0  0  0  0  0  0  0  0  0  0  0  0
   -3.4844   -0.3811   -0.0001 C   0  0  0  0  0  0  0  0  0  0  0  0
    3.9113   -3.3449    1.3011 C   0  0  0  0  0  0  0  0  0  0  0  0
    4.0342   -3.3601   -1.1122 C   0  0  0  0  0  0  0  0  0  0  0  0
    4.7416   -4.4683    1.3489 C   0  0  0  0  0  0  0  0  0  0  0  0
    4.8609   -4.4860   -1.0619 C   0  0  0  0  0  0  0  0  0  0  0  0
    5.2232   -5.0322    0.1686 C   0  0  0  0  0  0  0  0  0  0  0  0
   -0.8842   -2.5589    0.0067 H   0  0  0  0  0  0  0  0  0  0  0  0
    1.2249    3.0342   -0.0156 H   0  0  0  0  0  0  0  0  0  0  0  0
   -1.2311    2.9913   -0.0108 H   0  0  0  0  0  0  0  0  0  0  0  0
   -3.3365    1.7536   -0.0064 H   0  0  0  0  0  0  0  0  0  0  0  0
   -3.3447   -2.5257    0.0043 H   0  0  0  0  0  0  0  0  0  0  0  0
    4.6630   -0.3484    0.0239 H   0  0  0  0  0  0  0  0  0  0  0  0
   -4.5717   -0.3712   -0.0014 H   0  0  0  0  0  0  0  0  0  0  0  0
    3.5669   -2.8994    2.2317 H   0  0  0  0  0  0  0  0  0  0  0  0
    3.7873   -2.9262   -2.0785 H   0  0  0  0  0  0  0  0  0  0  0  0
    5.0302   -4.8903    2.3086 H   0  0  0  0  0  0  0  0  0  0  0  0
    5.2401   -4.9237   -1.9821 H   0  0  0  0  0  0  0  0  0  0  0  0
    5.8882   -5.8918    0.2079 H   0  0  0  0  0  0  0  0  0  0  0  0
  1  2  2  0  0  0  0
  1  3  1  0  0  0  0
  1  4  1  0  0  0  0
  2  5  1  0  0  0  0
  2  6  1  0  0  0  0
  3  7  1  0  0  0  0
  3  8  2  0  0  0  0
  4  9  1  0  0  0  0
  5 10  2  0  0  0  0
  5 11  1  0  0  0  0
  6 12  2  0  0  0  0
  6 22  1  0  0  0  0
  7 13  1  0  0  0  0
  7 14  2  0  0  0  0
  8 10  1  0  0  0  0
  8 23  1  0  0  0  0
  9 15  1  0  0  0  0
  9 13  2  0  0  0  0
 10 24  1  0  0  0  0
 11 16  2  0  0  0  0
 11 25  1  0  0  0  0
 12 16  1  0  0  0  0
 12 26  1  0  0  0  0
 13 27  1  0  0  0  0
 15 17  2  0  0  0  0
 15 18  1  0  0  0  0
 16 28  1  0  0  0  0
 17 19  1  0  0  0  0
 17 29  1  0  0  0  0
 18 20  2  0  0  0  0
 18 30  1  0  0  0  0
 19 21  2  0  0  0  0
 19 31  1  0  0  0  0
 20 21  1  0  0  0  0
 20 32  1  0  0  0  0
 21 33  1  0  0  0  0
M  END
>  <Mol_ID>
2974

>  <Formula>
C19H12O2

>  <MolWeight>
272.29738

>  <Cat>
S5158

>  <Name>
alpha-Naphthoflavone

>  <Synonyms>
7,8-benzoflavone

>  <Target>
Aromatase

>  <Form>
free base

>  <CAS>
604-59-1

>  <URL>
http://selleckchem.com/products/alpha-naphthoflavone.html

$$$$
