S5162 Isovanillic acid.cdx
 OpenBabel08302520003D

 20 20  0  0  0  0  0  0  0  0999 V2000
   -1.2529   -1.1964    0.0032 C   0  0  0  0  0  0  0  0  0  0  0  0
    0.1454   -1.2728    0.0088 C   0  0  0  0  0  0  0  0  0  0  0  0
   -1.8761    0.0534   -0.0120 C   0  0  0  0  0  0  0  0  0  0  0  0
   -2.0098   -2.4734   -0.0431 C   0  0  0  0  0  0  0  0  0  0  0  0
    0.9206   -0.1072    0.0188 C   0  0  0  0  0  0  0  0  0  0  0  0
   -1.0940    1.2131    0.0059 C   0  0  0  0  0  0  0  0  0  0  0  0
   -3.2282   -2.4265    0.5312 O   0  0  0  0  0  0  0  0  0  0  0  0
   -1.5427   -3.4918   -0.5274 O   0  0  0  0  0  0  0  0  0  0  0  0
    0.3069    1.1496    0.0223 C   0  0  0  0  0  0  0  0  0  0  0  0
    2.2812   -0.2412    0.0197 O   0  0  0  0  0  0  0  0  0  0  0  0
    0.8947    2.3854    0.0306 O   0  0  0  0  0  0  0  0  0  0  0  0
    2.3134    2.4552    0.0327 C   0  0  0  0  0  0  0  0  0  0  0  0
    0.6199   -2.2519   -0.0014 H   0  0  0  0  0  0  0  0  0  0  0  0
   -2.9557    0.1557   -0.0731 H   0  0  0  0  0  0  0  0  0  0  0  0
   -1.5799    2.1876   -0.0099 H   0  0  0  0  0  0  0  0  0  0  0  0
   -3.4248   -1.6189    1.0368 H   0  0  0  0  0  0  0  0  0  0  0  0
    2.5159   -1.1827   -0.0332 H   0  0  0  0  0  0  0  0  0  0  0  0
    2.7333    1.9968    0.9335 H   0  0  0  0  0  0  0  0  0  0  0  0
    2.7337    2.0269   -0.8829 H   0  0  0  0  0  0  0  0  0  0  0  0
    2.5920    3.5136    0.0514 H   0  0  0  0  0  0  0  0  0  0  0  0
  1  2  2  0  0  0  0
  1  3  1  0  0  0  0
  1  4  1  0  0  0  0
  2  5  1  0  0  0  0
  2 13  1  0  0  0  0
  3  6  2  0  0  0  0
  3 14  1  0  0  0  0
  4  7  1  0  0  0  0
  4  8  2  0  0  0  0
  5  9  2  0  0  0  0
  5 10  1  0  0  0  0
  6  9  1  0  0  0  0
  6 15  1  0  0  0  0
  7 16  1  0  0  0  0
  9 11  1  0  0  0  0
 10 17  1  0  0  0  0
 11 12  1  0  0  0  0
 12 18  1  0  0  0  0
 12 19  1  0  0  0  0
 12 20  1  0  0  0  0
M  END
>  <Mol_ID>
2777

>  <Formula>
C8H8O4

>  <MolWeight>
168.14672

>  <Cat>
S5162

>  <Name>
Isovanillic acid

>  <Synonyms>
Acide isovanillique, 3-Hydroxyanisic acid, 3-Hydroxy-p-anisic acid

>  <Target>
Immunology & Inflammation related

>  <Form>
free base

>  <CAS>
645-08-9

>  <URL>
http://selleckchem.com/products/isovanillic-acid.html

$$$$
