S5163 7-Methoxycoumarin.cdx
 OpenBabel08302520003D

 21 22  0  0  0  0  0  0  0  0999 V2000
    0.3017    0.5516   -0.0392 C   0  0  0  0  0  0  0  0  0  0  0  0
    0.5929   -0.8105   -0.0097 C   0  0  0  0  0  0  0  0  0  0  0  0
    1.3032    1.5236   -0.0337 C   0  0  0  0  0  0  0  0  0  0  0  0
   -1.0326    1.0060   -0.0685 O   0  0  0  0  0  0  0  0  0  0  0  0
    1.9272   -1.2092    0.0371 C   0  0  0  0  0  0  0  0  0  0  0  0
   -0.5017   -1.7663   -0.0306 C   0  0  0  0  0  0  0  0  0  0  0  0
    2.6367    1.1224    0.0104 C   0  0  0  0  0  0  0  0  0  0  0  0
   -2.0954    0.1135   -0.0535 C   0  0  0  0  0  0  0  0  0  0  0  0
    2.9413   -0.2438    0.0493 C   0  0  0  0  0  0  0  0  0  0  0  0
   -1.7619   -1.3218   -0.0513 C   0  0  0  0  0  0  0  0  0  0  0  0
    3.7248    1.9509    0.0219 O   0  0  0  0  0  0  0  0  0  0  0  0
   -3.2634    0.4844   -0.0475 O   0  0  0  0  0  0  0  0  0  0  0  0
    3.4670    3.3487   -0.0373 C   0  0  0  0  0  0  0  0  0  0  0  0
    1.0120    2.5673   -0.0616 H   0  0  0  0  0  0  0  0  0  0  0  0
    2.1970   -2.2617    0.0673 H   0  0  0  0  0  0  0  0  0  0  0  0
   -0.2794   -2.8276   -0.0314 H   0  0  0  0  0  0  0  0  0  0  0  0
    3.9815   -0.5590    0.0885 H   0  0  0  0  0  0  0  0  0  0  0  0
   -2.6065   -2.0000   -0.0661 H   0  0  0  0  0  0  0  0  0  0  0  0
    2.9495    3.6159   -0.9651 H   0  0  0  0  0  0  0  0  0  0  0  0
    2.9038    3.6827    0.8403 H   0  0  0  0  0  0  0  0  0  0  0  0
    4.4303    3.8676   -0.0326 H   0  0  0  0  0  0  0  0  0  0  0  0
  1  2  1  0  0  0  0
  1  3  2  0  0  0  0
  1  4  1  0  0  0  0
  2  5  2  0  0  0  0
  2  6  1  0  0  0  0
  3  7  1  0  0  0  0
  3 14  1  0  0  0  0
  4  8  1  0  0  0  0
  5  9  1  0  0  0  0
  5 15  1  0  0  0  0
  6 10  2  0  0  0  0
  6 16  1  0  0  0  0
  7 11  1  0  0  0  0
  7  9  2  0  0  0  0
  8 12  2  0  0  0  0
  8 10  1  0  0  0  0
  9 17  1  0  0  0  0
 10 18  1  0  0  0  0
 11 13  1  0  0  0  0
 13 19  1  0  0  0  0
 13 20  1  0  0  0  0
 13 21  1  0  0  0  0
M  END
>  <Mol_ID>
2778

>  <Formula>
C10H8O3

>  <MolWeight>
176.16872

>  <Cat>
S5163

>  <Name>
7-Methoxycoumarin

>  <Synonyms>
Herniarin, Herniarine

>  <Target>
Others

>  <Form>
free base

>  <CAS>
531-59-9

>  <URL>
http://selleckchem.com/products/7-methoxycoumarin.html

$$$$
