S5170 Coumarin 6.cdx
 OpenBabel08302521403D

 43 46  0  0  0  0  0  0  0  0999 V2000
   -1.8399   -1.3057   -0.0981 C   0  0  0  0  0  0  0  0  0  0  0  0
   -2.9115   -2.2514   -0.1960 C   0  0  0  0  0  0  0  0  0  0  0  0
   -0.5797   -1.7727   -0.0358 C   0  0  0  0  0  0  0  0  0  0  0  0
   -2.1082    0.1571   -0.0105 C   0  0  0  0  0  0  0  0  0  0  0  0
   -2.9152   -3.4593    0.3452 N   0  0  0  0  0  0  0  0  0  0  0  0
   -4.3127   -1.9275   -1.1660 S   0  0  0  0  0  0  0  0  0  0  0  0
    0.5477   -0.8599    0.0406 C   0  0  0  0  0  0  0  0  0  0  0  0
   -1.0039    1.0012   -0.0135 O   0  0  0  0  0  0  0  0  0  0  0  0
   -3.2369    0.6314    0.0710 O   0  0  0  0  0  0  0  0  0  0  0  0
   -4.1050   -4.1195    0.0875 C   0  0  0  0  0  0  0  0  0  0  0  0
   -5.0096   -3.4254   -0.7109 C   0  0  0  0  0  0  0  0  0  0  0  0
    0.3078    0.5018    0.0186 C   0  0  0  0  0  0  0  0  0  0  0  0
    1.8666   -1.2917    0.1043 C   0  0  0  0  0  0  0  0  0  0  0  0
   -4.4611   -5.3994    0.5589 C   0  0  0  0  0  0  0  0  0  0  0  0
   -6.2679   -3.9528   -1.0446 C   0  0  0  0  0  0  0  0  0  0  0  0
    1.3429    1.4368    0.0217 C   0  0  0  0  0  0  0  0  0  0  0  0
    2.9134   -0.3534    0.1167 C   0  0  0  0  0  0  0  0  0  0  0  0
   -5.7113   -5.9374    0.2334 C   0  0  0  0  0  0  0  0  0  0  0  0
   -6.6037   -5.2184   -0.5555 C   0  0  0  0  0  0  0  0  0  0  0  0
    2.6846    1.0333    0.0387 C   0  0  0  0  0  0  0  0  0  0  0  0
    3.7208    1.9552   -0.0433 N   0  0  0  0  0  0  0  0  0  0  0  0
    3.5338    3.2524   -0.7116 C   0  0  0  0  0  0  0  0  0  0  0  0
    5.0624    1.6490    0.4629 C   0  0  0  0  0  0  0  0  0  0  0  0
    3.2191    3.0873   -2.1947 C   0  0  0  0  0  0  0  0  0  0  0  0
    5.9710    1.1080   -0.6306 C   0  0  0  0  0  0  0  0  0  0  0  0
   -0.3675   -2.8382   -0.0676 H   0  0  0  0  0  0  0  0  0  0  0  0
    2.1089   -2.3511    0.1265 H   0  0  0  0  0  0  0  0  0  0  0  0
   -3.7643   -5.9546    1.1789 H   0  0  0  0  0  0  0  0  0  0  0  0
   -6.9631   -3.3911   -1.6609 H   0  0  0  0  0  0  0  0  0  0  0  0
    1.0742    2.4881    0.0137 H   0  0  0  0  0  0  0  0  0  0  0  0
    3.9247   -0.7459    0.1437 H   0  0  0  0  0  0  0  0  0  0  0  0
   -5.9857   -6.9217    0.6041 H   0  0  0  0  0  0  0  0  0  0  0  0
   -7.5756   -5.6442   -0.7968 H   0  0  0  0  0  0  0  0  0  0  0  0
    2.7559    3.8426   -0.2140 H   0  0  0  0  0  0  0  0  0  0  0  0
    4.4493    3.8515   -0.6294 H   0  0  0  0  0  0  0  0  0  0  0  0
    5.5124    2.5619    0.8738 H   0  0  0  0  0  0  0  0  0  0  0  0
    5.0183    0.9495    1.3063 H   0  0  0  0  0  0  0  0  0  0  0  0
    2.2471    2.6112   -2.3562 H   0  0  0  0  0  0  0  0  0  0  0  0
    3.1902    4.0649   -2.6858 H   0  0  0  0  0  0  0  0  0  0  0  0
    3.9757    2.4746   -2.6948 H   0  0  0  0  0  0  0  0  0  0  0  0
    6.1052    1.8405   -1.4324 H   0  0  0  0  0  0  0  0  0  0  0  0
    6.9570    0.8748   -0.2168 H   0  0  0  0  0  0  0  0  0  0  0  0
    5.5710    0.1955   -1.0814 H   0  0  0  0  0  0  0  0  0  0  0  0
  1  2  1  0  0  0  0
  1  3  2  0  0  0  0
  1  4  1  0  0  0  0
  2  5  2  0  0  0  0
  2  6  1  0  0  0  0
  3  7  1  0  0  0  0
  3 26  1  0  0  0  0
  4  8  1  0  0  0  0
  4  9  2  0  0  0  0
  5 10  1  0  0  0  0
  6 11  1  0  0  0  0
  7 12  2  0  0  0  0
  7 13  1  0  0  0  0
  8 12  1  0  0  0  0
 10 14  2  0  0  0  0
 10 11  1  0  0  0  0
 11 15  2  0  0  0  0
 12 16  1  0  0  0  0
 13 17  2  0  0  0  0
 13 27  1  0  0  0  0
 14 18  1  0  0  0  0
 14 28  1  0  0  0  0
 15 19  1  0  0  0  0
 15 29  1  0  0  0  0
 16 20  2  0  0  0  0
 16 30  1  0  0  0  0
 17 20  1  0  0  0  0
 17 31  1  0  0  0  0
 18 19  2  0  0  0  0
 18 32  1  0  0  0  0
 19 33  1  0  0  0  0
 20 21  1  0  0  0  0
 21 22  1  0  0  0  0
 21 23  1  0  0  0  0
 22 24  1  0  0  0  0
 22 34  1  0  0  0  0
 22 35  1  0  0  0  0
 23 25  1  0  0  0  0
 23 36  1  0  0  0  0
 23 37  1  0  0  0  0
 24 38  1  0  0  0  0
 24 39  1  0  0  0  0
 24 40  1  0  0  0  0
 25 41  1  0  0  0  0
 25 42  1  0  0  0  0
 25 43  1  0  0  0  0
M  END
>  <Mol_ID>
8250

>  <Formula>
C20H18N2O2S

>  <MolWeight>
350.43412

>  <Cat>
S5170

>  <Name>
Coumarin 6

>  <Synonyms>
N/A

>  <Target>
Others

>  <Form>
free base

>  <CAS>
38215-36-0

>  <URL>
http://selleckchem.com/products/coumarin-6.html

$$$$
