S5210 Sulfamethazine Sodium Salt.cdx
 OpenBabel08302520003D

 33 34  0  0  0  0  0  0  0  0999 V2000
   -2.2308   -0.9517    0.6328 C   0  0  0  0  0  0  0  0  0  0  0  0
   -3.6680   -0.1072    0.0258 S   0  0  0  0  0  0  0  0  0  0  0  0
   -0.9572   -0.5399    0.2349 C   0  0  0  0  0  0  0  0  0  0  0  0
   -2.3820   -1.9831    1.5612 C   0  0  0  0  0  0  0  0  0  0  0  0
   -4.0488   -0.9256   -1.3797 N   0  0  0  0  0  0  0  0  0  0  0  0
   -4.7233   -0.2467    1.0093 O   0  0  0  0  0  0  0  0  0  0  0  0
   -3.2357    1.2106   -0.3943 O   0  0  0  0  0  0  0  0  0  0  0  0
    0.1679   -1.1906    0.7506 C   0  0  0  0  0  0  0  0  0  0  0  0
   -1.2497   -2.6264    2.0664 C   0  0  0  0  0  0  0  0  0  0  0  0
   -4.8310   -2.0639   -1.2043 C   0  0  0  0  0  0  0  0  0  0  0  0
    0.0339   -2.2084    1.7012 C   0  0  0  0  0  0  0  0  0  0  0  0
   -6.1501   -1.8742   -1.2653 N   0  0  0  0  0  0  0  0  0  0  0  0
   -4.1878   -3.2261   -1.0819 N   0  0  0  0  0  0  0  0  0  0  0  0
    1.1523   -2.9483    2.1029 N   0  0  0  0  0  0  0  0  0  0  0  0
   -6.9056   -2.9840   -1.1475 C   0  0  0  0  0  0  0  0  0  0  0  0
   -4.9695   -4.3223   -1.0320 C   0  0  0  0  0  0  0  0  0  0  0  0
   -6.3513   -4.2470   -1.0434 C   0  0  0  0  0  0  0  0  0  0  0  0
   -8.3952   -2.8125   -1.1230 C   0  0  0  0  0  0  0  0  0  0  0  0
   -4.2903   -5.6583   -0.9813 C   0  0  0  0  0  0  0  0  0  0  0  0
   -0.8301    0.2705   -0.4790 H   0  0  0  0  0  0  0  0  0  0  0  0
   -3.3711   -2.3033    1.8791 H   0  0  0  0  0  0  0  0  0  0  0  0
   -4.4534   -0.2869   -2.0526 H   0  0  0  0  0  0  0  0  0  0  0  0
    1.1545   -0.8927    0.4045 H   0  0  0  0  0  0  0  0  0  0  0  0
   -1.3801   -3.4587    2.7528 H   0  0  0  0  0  0  0  0  0  0  0  0
    1.0273   -3.4341    2.9855 H   0  0  0  0  0  0  0  0  0  0  0  0
    2.0232   -2.4277    2.0697 H   0  0  0  0  0  0  0  0  0  0  0  0
   -6.9695   -5.1351   -0.9826 H   0  0  0  0  0  0  0  0  0  0  0  0
   -8.8588   -3.3935   -1.9267 H   0  0  0  0  0  0  0  0  0  0  0  0
   -8.7962   -3.1478   -0.1617 H   0  0  0  0  0  0  0  0  0  0  0  0
   -8.6701   -1.7617   -1.2590 H   0  0  0  0  0  0  0  0  0  0  0  0
   -4.5098   -6.1600   -0.0342 H   0  0  0  0  0  0  0  0  0  0  0  0
   -4.6342   -6.2879   -1.8083 H   0  0  0  0  0  0  0  0  0  0  0  0
   -3.2052   -5.5478   -1.0719 H   0  0  0  0  0  0  0  0  0  0  0  0
  1  2  1  0  0  0  0
  1  3  2  0  0  0  0
  1  4  1  0  0  0  0
  2  5  1  0  0  0  0
  2  6  2  0  0  0  0
  2  7  2  0  0  0  0
  3  8  1  0  0  0  0
  3 20  1  0  0  0  0
  4  9  2  0  0  0  0
  4 21  1  0  0  0  0
  5 10  1  0  0  0  0
  5 22  1  0  0  0  0
  8 11  2  0  0  0  0
  8 23  1  0  0  0  0
  9 11  1  0  0  0  0
  9 24  1  0  0  0  0
 10 12  2  0  0  0  0
 10 13  1  0  0  0  0
 11 14  1  0  0  0  0
 12 15  1  0  0  0  0
 13 16  2  0  0  0  0
 14 25  1  0  0  0  0
 14 26  1  0  0  0  0
 15 17  2  0  0  0  0
 15 18  1  0  0  0  0
 16 19  1  0  0  0  0
 16 17  1  0  0  0  0
 17 27  1  0  0  0  0
 18 28  1  0  0  0  0
 18 29  1  0  0  0  0
 18 30  1  0  0  0  0
 19 31  1  0  0  0  0
 19 32  1  0  0  0  0
 19 33  1  0  0  0  0
M  END
>  <Mol_ID>
2813

>  <Formula>
C12H13N4NaO2S

>  <MolWeight>
300.31199

>  <Cat>
S5210

>  <Name>
Sulfamethazine Sodium Salt

>  <Synonyms>
Sulfadimethyldiazine Sodium Salt

>  <Target>
Anti-infection

>  <Form>
sodium salt

>  <CAS>
1981-58-4

>  <URL>
http://selleckchem.com/products/sulfamethazine-sodium-salt.html

$$$$
