S5211 4-Aminosalicylic acid.cdx
 OpenBabel08302520003D

 18 18  0  0  0  0  0  0  0  0999 V2000
    1.2201   -1.1922    0.0195 C   0  0  0  0  0  0  0  0  0  0  0  0
    1.2641    0.2024    0.0755 C   0  0  0  0  0  0  0  0  0  0  0  0
   -0.0246   -1.8265   -0.0165 C   0  0  0  0  0  0  0  0  0  0  0  0
    2.4382   -2.0395    0.0053 C   0  0  0  0  0  0  0  0  0  0  0  0
    0.0927    0.9597    0.1099 C   0  0  0  0  0  0  0  0  0  0  0  0
    2.4602    0.8667    0.1241 O   0  0  0  0  0  0  0  0  0  0  0  0
   -1.2000   -1.0680    0.0142 C   0  0  0  0  0  0  0  0  0  0  0  0
    3.5004   -1.4880    0.6304 O   0  0  0  0  0  0  0  0  0  0  0  0
    2.4630   -3.1486   -0.5014 O   0  0  0  0  0  0  0  0  0  0  0  0
   -1.1540    0.3301    0.0283 C   0  0  0  0  0  0  0  0  0  0  0  0
   -2.3300    1.0688    0.1941 N   0  0  0  0  0  0  0  0  0  0  0  0
   -0.0855   -2.9130   -0.0451 H   0  0  0  0  0  0  0  0  0  0  0  0
    0.1538    2.0403    0.2049 H   0  0  0  0  0  0  0  0  0  0  0  0
    2.7459    0.9759   -0.8060 H   0  0  0  0  0  0  0  0  0  0  0  0
   -2.1574   -1.5837    0.0312 H   0  0  0  0  0  0  0  0  0  0  0  0
    3.3152   -0.5925    0.9911 H   0  0  0  0  0  0  0  0  0  0  0  0
   -2.2657    2.0367   -0.1060 H   0  0  0  0  0  0  0  0  0  0  0  0
   -3.1628    0.6097   -0.1633 H   0  0  0  0  0  0  0  0  0  0  0  0
  1  2  2  0  0  0  0
  1  3  1  0  0  0  0
  1  4  1  0  0  0  0
  2  5  1  0  0  0  0
  2  6  1  0  0  0  0
  3  7  2  0  0  0  0
  3 12  1  0  0  0  0
  4  8  1  0  0  0  0
  4  9  2  0  0  0  0
  5 10  2  0  0  0  0
  5 13  1  0  0  0  0
  6 14  1  0  0  0  0
  7 10  1  0  0  0  0
  7 15  1  0  0  0  0
  8 16  1  0  0  0  0
 10 11  1  0  0  0  0
 11 17  1  0  0  0  0
 11 18  1  0  0  0  0
M  END
>  <Mol_ID>
2814

>  <Formula>
C7H7NO3

>  <MolWeight>
153.13538

>  <Cat>
S5211

>  <Name>
4-Aminosalicylic acid

>  <Synonyms>
Para-aminosalicylic acid, Aminosalicylic acid, 4-aminosalicylate

>  <Target>
Bacterial

>  <Form>
free base

>  <CAS>
65-49-6

>  <URL>
http://selleckchem.com/products/4-aminosalicylic-acid.html

$$$$
