S5229 Isosorbide dinitrate.cdx
 OpenBabel08302520013D

 24 25  0  0  0  0  0  0  0  0999 V2000
   -0.2633   -0.8063   -0.5409 C   0  0  1  0  0  0  0  0  0  0  0  0
   -0.0377    0.7031   -0.5759 C   0  0  1  0  0  0  0  0  0  0  0  0
    1.0031   -1.3958    0.0621 C   0  0  1  0  0  0  0  0  0  0  0  0
   -1.4348   -1.0420    0.2510 O   0  0  0  0  0  0  0  0  0  0  0  0
   -1.1622    1.2861    0.2875 C   0  0  2  0  0  0  0  0  0  0  0  0
    1.2516    0.9706   -0.0053 O   0  0  0  0  0  0  0  0  0  0  0  0
    1.6527   -0.1916    0.7277 C   0  0  0  0  0  0  0  0  0  0  0  0
    0.7866   -2.3878    1.0598 O   0  0  0  0  0  0  0  0  0  0  0  0
   -2.1935    0.1717    0.2177 C   0  0  0  0  0  0  0  0  0  0  0  0
   -1.6213    2.5078   -0.2812 O   0  0  0  0  0  0  0  0  0  0  0  0
    0.5390   -3.6742    0.5414 N   0  3  0  0  0  0  0  0  0  0  0  0
   -2.5736    3.1787    0.5214 N   0  3  0  0  0  0  0  0  0  0  0  0
    0.5274   -3.7898   -0.6871 O   0  0  0  0  0  0  0  0  0  0  0  0
    0.4081   -4.5236    1.4173 O   0  5  0  0  0  0  0  0  0  0  0  0
   -2.8748    2.6613    1.5962 O   0  0  0  0  0  0  0  0  0  0  0  0
   -3.0010    4.2047   -0.0062 O   0  5  0  0  0  0  0  0  0  0  0  0
   -0.4565   -1.2005   -1.5447 H   0  0  0  0  0  0  0  0  0  0  0  0
   -0.0391    1.1048   -1.5948 H   0  0  0  0  0  0  0  0  0  0  0  0
    1.6863   -1.7325   -0.7291 H   0  0  0  0  0  0  0  0  0  0  0  0
   -0.7869    1.4415    1.3081 H   0  0  0  0  0  0  0  0  0  0  0  0
    1.3425   -0.0786    1.7726 H   0  0  0  0  0  0  0  0  0  0  0  0
    2.7446   -0.2686    0.7137 H   0  0  0  0  0  0  0  0  0  0  0  0
   -2.8951    0.1778    1.0552 H   0  0  0  0  0  0  0  0  0  0  0  0
   -2.7754    0.2149   -0.7117 H   0  0  0  0  0  0  0  0  0  0  0  0
  1  2  1  0  0  0  0
  1  3  1  0  0  0  0
  1  4  1  0  0  0  0
  1 17  1  6  0  0  0
  2  5  1  0  0  0  0
  2  6  1  0  0  0  0
  2 18  1  6  0  0  0
  3  7  1  0  0  0  0
  3 19  1  6  0  0  0
  3  8  1  0  0  0  0
  4  9  1  0  0  0  0
  5  9  1  0  0  0  0
  5 20  1  1  0  0  0
  5 10  1  0  0  0  0
  6  7  1  0  0  0  0
  7 21  1  0  0  0  0
  7 22  1  0  0  0  0
  8 11  1  0  0  0  0
  9 23  1  0  0  0  0
  9 24  1  0  0  0  0
 10 12  1  0  0  0  0
 11 13  2  0  0  0  0
 11 14  1  0  0  0  0
 12 15  2  0  0  0  0
 12 16  1  0  0  0  0
M  CHG  4  11   1  12   1  14  -1  16  -1
M  END
>  <Mol_ID>
2876

>  <Formula>
C6H8N2O8

>  <MolWeight>
236.13632

>  <Cat>
S5229

>  <Name>
Isosorbide dinitrate

>  <Synonyms>
Sorbide nitrate, Sorbidnitrate, Isordil, Nitrosorbide

>  <Target>
Guanylate Cyclase,NOS

>  <Form>
free base

>  <CAS>
87-33-2

>  <URL>
http://selleckchem.com/products/isosorbide-dinitrate.html

$$$$
