S5245 Raltegravir potassium.cdx
 OpenBabel08302520013D

 52 54  0  0  0  0  0  0  0  0999 V2000
   -0.7393    1.1239   -0.0665 C   0  0  0  0  0  0  0  0  0  0  0  0
   -1.5551    0.0442   -0.1056 C   0  0  0  0  0  0  0  0  0  0  0  0
    1.2573   -0.0495   -0.0126 C   0  0  0  0  0  0  0  0  0  0  0  0
    0.6467    1.0993   -0.0676 N   0  0  0  0  0  0  0  0  0  0  0  0
    0.5863   -1.2499   -0.0535 N   0  0  0  0  0  0  0  0  0  0  0  0
   -0.8070   -1.2813   -0.1208 C   0  0  0  0  0  0  0  0  0  0  0  0
    4.3036    3.5720    0.4262 C   0  0  0  0  0  0  0  0  0  0  0  0
    3.4425    4.3211   -0.2383 N   0  0  0  0  0  0  0  0  0  0  0  0
    5.2925    4.3130    1.0280 O   0  0  0  0  0  0  0  0  0  0  0  0
    4.3062    2.1251    0.5501 C   0  0  0  0  0  0  0  0  0  0  0  0
    2.8460    0.0405    0.1675 C   0  0  0  0  0  0  0  0  0  0  0  0
    3.8685    5.6297   -0.0878 N   0  0  0  0  0  0  0  0  0  0  0  0
   -1.3835    2.5281   -0.0037 C   0  0  0  0  0  0  0  0  0  0  0  0
    3.1565    1.4985    0.1101 N   0  0  0  0  0  0  0  0  0  0  0  0
    4.9450    5.5846    0.6679 C   0  0  0  0  0  0  0  0  0  0  0  0
   -2.8189   -0.0548   -0.1428 O   0  5  0  0  0  0  0  0  0  0  0  0
   -0.5452    3.5313   -0.4708 N   0  0  0  0  0  0  0  0  0  0  0  0
   -1.4043   -2.3641   -0.1874 O   0  0  0  0  0  0  0  0  0  0  0  0
    5.2556    1.4997    1.0201 O   0  0  0  0  0  0  0  0  0  0  0  0
   -2.4935    2.8093    0.4378 O   0  0  0  0  0  0  0  0  0  0  0  0
    1.2116   -2.5670   -0.1012 C   0  0  0  0  0  0  0  0  0  0  0  0
   -1.0052    4.8907   -0.5956 C   0  0  0  0  0  0  0  0  0  0  0  0
   -0.3321    7.2405    2.9493 C   0  0  0  0  0  0  0  0  0  0  0  0
   -0.7619    5.7135    0.6478 C   0  0  0  0  0  0  0  0  0  0  0  0
   -0.1252    7.9776    4.0493 F   0  0  0  0  0  0  0  0  0  0  0  0
    0.6356    7.2098    1.9519 C   0  0  0  0  0  0  0  0  0  0  0  0
   -1.5119    6.5187    2.8195 C   0  0  0  0  0  0  0  0  0  0  0  0
    0.4260    6.4442    0.8071 C   0  0  0  0  0  0  0  0  0  0  0  0
   -1.7240    5.7544    1.6703 C   0  0  0  0  0  0  0  0  0  0  0  0
    3.2482   -0.5096    1.5461 C   0  0  0  0  0  0  0  0  0  0  0  0
    3.6420   -0.6347   -0.9561 C   0  0  0  0  0  0  0  0  0  0  0  0
    5.7985    6.6775    1.1660 C   0  0  0  0  0  0  0  0  0  0  0  0
    2.3755    2.0825   -0.1849 H   0  0  0  0  0  0  0  0  0  0  0  0
    0.3780    3.2586   -0.7706 H   0  0  0  0  0  0  0  0  0  0  0  0
    1.8356   -2.6418   -0.9906 H   0  0  0  0  0  0  0  0  0  0  0  0
    1.7997   -2.7518    0.7943 H   0  0  0  0  0  0  0  0  0  0  0  0
    0.4991   -3.3944   -0.1601 H   0  0  0  0  0  0  0  0  0  0  0  0
   -0.4892    5.3411   -1.4515 H   0  0  0  0  0  0  0  0  0  0  0  0
   -2.0723    4.9010   -0.8465 H   0  0  0  0  0  0  0  0  0  0  0  0
    1.5529    7.7750    2.0742 H   0  0  0  0  0  0  0  0  0  0  0  0
   -2.2538    6.5416    3.6102 H   0  0  0  0  0  0  0  0  0  0  0  0
    1.1883    6.4137    0.0299 H   0  0  0  0  0  0  0  0  0  0  0  0
   -2.6447    5.1746    1.5747 H   0  0  0  0  0  0  0  0  0  0  0  0
    2.8182   -1.4790    1.7806 H   0  0  0  0  0  0  0  0  0  0  0  0
    4.3329   -0.6407    1.6256 H   0  0  0  0  0  0  0  0  0  0  0  0
    2.9271    0.1656    2.3464 H   0  0  0  0  0  0  0  0  0  0  0  0
    3.6162   -1.7239   -0.9077 H   0  0  0  0  0  0  0  0  0  0  0  0
    3.2781   -0.3274   -1.9437 H   0  0  0  0  0  0  0  0  0  0  0  0
    4.7047   -0.3647   -0.9084 H   0  0  0  0  0  0  0  0  0  0  0  0
    5.6362    6.8295    2.2374 H   0  0  0  0  0  0  0  0  0  0  0  0
    6.8560    6.4474    1.0045 H   0  0  0  0  0  0  0  0  0  0  0  0
    5.5740    7.6160    0.6516 H   0  0  0  0  0  0  0  0  0  0  0  0
  2  1  2  0  0  0  0
  3  4  2  0  0  0  0
  3  5  1  0  0  0  0
  4  1  1  0  0  0  0
  5  6  1  0  0  0  0
  6  2  1  0  0  0  0
  7 10  1  0  0  0  0
  8  7  2  0  0  0  0
  9  7  1  0  0  0  0
 10 14  1  0  0  0  0
 11  3  1  0  0  0  0
 12  8  1  0  0  0  0
 13  1  1  0  0  0  0
 14 11  1  0  0  0  0
 14 33  1  0  0  0  0
 15  9  1  0  0  0  0
 15 12  2  0  0  0  0
 16  2  1  0  0  0  0
 17 13  1  0  0  0  0
 17 34  1  0  0  0  0
 18  6  2  0  0  0  0
 19 10  2  0  0  0  0
 20 13  2  0  0  0  0
 21  5  1  0  0  0  0
 21 35  1  0  0  0  0
 21 36  1  0  0  0  0
 21 37  1  0  0  0  0
 22 17  1  0  0  0  0
 22 38  1  0  0  0  0
 22 39  1  0  0  0  0
 23 26  2  0  0  0  0
 23 27  1  0  0  0  0
 24 22  1  0  0  0  0
 25 23  1  0  0  0  0
 26 28  1  0  0  0  0
 26 40  1  0  0  0  0
 27 29  2  0  0  0  0
 27 41  1  0  0  0  0
 28 24  2  0  0  0  0
 28 42  1  0  0  0  0
 29 24  1  0  0  0  0
 29 43  1  0  0  0  0
 30 11  1  0  0  0  0
 30 44  1  0  0  0  0
 30 45  1  0  0  0  0
 30 46  1  0  0  0  0
 31 11  1  0  0  0  0
 31 47  1  0  0  0  0
 31 48  1  0  0  0  0
 31 49  1  0  0  0  0
 32 15  1  0  0  0  0
 32 50  1  0  0  0  0
 32 51  1  0  0  0  0
 32 52  1  0  0  0  0
M  CHG  1  16  -1
M  END
>  <Mol_ID>
2859

>  <Formula>
C20H20FKN6O5

>  <MolWeight>
482.5067032

>  <Cat>
S5245

>  <Name>
Raltegravir potassium

>  <Synonyms>
MK-0518 potassium

>  <Target>
Integrase

>  <Form>
potassium salt

>  <CAS>
871038-72-1

>  <URL>
http://selleckchem.com/products/raltegravir-potassium.html

$$$$
