S5257 Doxapram.cdx
 OpenBabel08302520013D

 58 61  0  0  0  0  0  0  0  0999 V2000
   -0.0295    1.1592    0.3243 C   0  0  0  0  0  0  0  0  0  0  0  0
   -1.4190    0.6810   -0.2684 C   0  0  3  0  0  0  0  0  0  0  0  0
   -0.0410    1.5230    1.8401 C   0  0  0  0  0  0  0  0  0  0  0  0
    0.6320    2.2940   -0.5201 C   0  0  0  0  0  0  0  0  0  0  0  0
    0.7782   -0.1867    0.1218 C   0  0  0  0  0  0  0  0  0  0  0  0
   -1.4769   -0.8093    0.0454 C   0  0  0  0  0  0  0  0  0  0  0  0
   -2.7101    1.4011    0.1598 C   0  0  0  0  0  0  0  0  0  0  0  0
    0.2227    0.5570    2.8327 C   0  0  0  0  0  0  0  0  0  0  0  0
   -0.1983    2.8528    2.2765 C   0  0  0  0  0  0  0  0  0  0  0  0
   -0.1101    3.1908   -1.3124 C   0  0  0  0  0  0  0  0  0  0  0  0
    2.0234    2.5124   -0.4529 C   0  0  0  0  0  0  0  0  0  0  0  0
   -0.1164   -1.2324   -0.0983 N   0  0  0  0  0  0  0  0  0  0  0  0
    1.9868   -0.3534    0.2372 O   0  0  0  0  0  0  0  0  0  0  0  0
   -3.9245    0.9334   -0.6893 C   0  0  0  0  0  0  0  0  0  0  0  0
    0.4232    0.9079    4.1713 C   0  0  0  0  0  0  0  0  0  0  0  0
    0.0032    3.2047    3.6185 C   0  0  0  0  0  0  0  0  0  0  0  0
    0.5077    4.2325   -2.0153 C   0  0  0  0  0  0  0  0  0  0  0  0
    2.6449    3.5345   -1.1767 C   0  0  0  0  0  0  0  0  0  0  0  0
    0.2738   -2.6309   -0.0606 C   0  0  0  0  0  0  0  0  0  0  0  0
   -5.1712    1.6582   -0.3952 N   0  0  0  0  0  0  0  0  0  0  0  0
    0.3365    2.2365    4.5606 C   0  0  0  0  0  0  0  0  0  0  0  0
    1.8862    4.3976   -1.9563 C   0  0  0  0  0  0  0  0  0  0  0  0
    0.1346   -3.2474    1.3231 C   0  0  0  0  0  0  0  0  0  0  0  0
   -6.3389    1.0368   -1.0745 C   0  0  0  0  0  0  0  0  0  0  0  0
   -5.1409    3.0822   -0.8016 C   0  0  0  0  0  0  0  0  0  0  0  0
   -6.4114    1.2986   -2.5919 C   0  0  0  0  0  0  0  0  0  0  0  0
   -5.1821    3.2952   -2.3237 C   0  0  0  0  0  0  0  0  0  0  0  0
   -6.3512    2.6976   -2.8953 O   0  0  0  0  0  0  0  0  0  0  0  0
   -1.3451    0.7541   -1.3654 H   0  0  0  0  0  0  0  0  0  0  0  0
   -1.8147   -1.0074    1.0690 H   0  0  0  0  0  0  0  0  0  0  0  0
   -2.1034   -1.3600   -0.6619 H   0  0  0  0  0  0  0  0  0  0  0  0
   -2.9216    1.2239    1.2171 H   0  0  0  0  0  0  0  0  0  0  0  0
   -2.5732    2.4779    0.0432 H   0  0  0  0  0  0  0  0  0  0  0  0
    0.3450   -0.4924    2.5834 H   0  0  0  0  0  0  0  0  0  0  0  0
   -0.4211    3.6515    1.5719 H   0  0  0  0  0  0  0  0  0  0  0  0
   -1.1876    3.1196   -1.3994 H   0  0  0  0  0  0  0  0  0  0  0  0
    2.6560    1.8864    0.1747 H   0  0  0  0  0  0  0  0  0  0  0  0
   -3.6742    0.9805   -1.7551 H   0  0  0  0  0  0  0  0  0  0  0  0
   -4.0925   -0.1262   -0.4591 H   0  0  0  0  0  0  0  0  0  0  0  0
    0.6865    0.1419    4.8968 H   0  0  0  0  0  0  0  0  0  0  0  0
   -0.0646    4.2464    3.9224 H   0  0  0  0  0  0  0  0  0  0  0  0
   -0.0927    4.9176   -2.6088 H   0  0  0  0  0  0  0  0  0  0  0  0
    3.7239    3.6539   -1.1203 H   0  0  0  0  0  0  0  0  0  0  0  0
   -0.3405   -3.1747   -0.7847 H   0  0  0  0  0  0  0  0  0  0  0  0
    1.3193   -2.7109   -0.3797 H   0  0  0  0  0  0  0  0  0  0  0  0
    0.5412    2.5163    5.5908 H   0  0  0  0  0  0  0  0  0  0  0  0
    2.3673    5.1997   -2.5089 H   0  0  0  0  0  0  0  0  0  0  0  0
   -0.9078   -3.2366    1.6581 H   0  0  0  0  0  0  0  0  0  0  0  0
    0.4758   -4.2872    1.3121 H   0  0  0  0  0  0  0  0  0  0  0  0
    0.7306   -2.7053    2.0635 H   0  0  0  0  0  0  0  0  0  0  0  0
   -7.2422    1.4586   -0.6138 H   0  0  0  0  0  0  0  0  0  0  0  0
   -6.3768   -0.0410   -0.8770 H   0  0  0  0  0  0  0  0  0  0  0  0
   -6.0274    3.5605   -0.3642 H   0  0  0  0  0  0  0  0  0  0  0  0
   -4.2846    3.6061   -0.3692 H   0  0  0  0  0  0  0  0  0  0  0  0
   -5.6105    0.7802   -3.1301 H   0  0  0  0  0  0  0  0  0  0  0  0
   -7.3638    0.9242   -2.9834 H   0  0  0  0  0  0  0  0  0  0  0  0
   -5.2202    4.3671   -2.5429 H   0  0  0  0  0  0  0  0  0  0  0  0
   -4.2907    2.8936   -2.8183 H   0  0  0  0  0  0  0  0  0  0  0  0
  1  2  1  0  0  0  0
  1  3  1  0  0  0  0
  1  4  1  0  0  0  0
  1  5  1  0  0  0  0
  2  6  1  0  0  0  0
  2  7  1  0  0  0  0
  2 29  1  0  0  0  0
  3  8  2  0  0  0  0
  3  9  1  0  0  0  0
  4 10  2  0  0  0  0
  4 11  1  0  0  0  0
  5 12  1  0  0  0  0
  5 13  2  0  0  0  0
  6 12  1  0  0  0  0
  6 30  1  0  0  0  0
  6 31  1  0  0  0  0
  7 14  1  0  0  0  0
  7 32  1  0  0  0  0
  7 33  1  0  0  0  0
  8 15  1  0  0  0  0
  8 34  1  0  0  0  0
  9 16  2  0  0  0  0
  9 35  1  0  0  0  0
 10 17  1  0  0  0  0
 10 36  1  0  0  0  0
 11 18  2  0  0  0  0
 11 37  1  0  0  0  0
 12 19  1  0  0  0  0
 14 20  1  0  0  0  0
 14 38  1  0  0  0  0
 14 39  1  0  0  0  0
 15 21  2  0  0  0  0
 15 40  1  0  0  0  0
 16 21  1  0  0  0  0
 16 41  1  0  0  0  0
 17 22  2  0  0  0  0
 17 42  1  0  0  0  0
 18 22  1  0  0  0  0
 18 43  1  0  0  0  0
 19 23  1  0  0  0  0
 19 44  1  0  0  0  0
 19 45  1  0  0  0  0
 20 24  1  0  0  0  0
 20 25  1  0  0  0  0
 21 46  1  0  0  0  0
 22 47  1  0  0  0  0
 23 48  1  0  0  0  0
 23 49  1  0  0  0  0
 23 50  1  0  0  0  0
 24 26  1  0  0  0  0
 24 51  1  0  0  0  0
 24 52  1  0  0  0  0
 25 27  1  0  0  0  0
 25 53  1  0  0  0  0
 25 54  1  0  0  0  0
 26 28  1  0  0  0  0
 26 55  1  0  0  0  0
 26 56  1  0  0  0  0
 27 28  1  0  0  0  0
 27 57  1  0  0  0  0
 27 58  1  0  0  0  0
M  END
>  <Mol_ID>
2898

>  <Formula>
C24H30N2O2

>  <MolWeight>
378.5072

>  <Cat>
S5257

>  <Name>
Doxapram

>  <Synonyms>
N/A

>  <Target>
Potassium Channel

>  <Form>
free base

>  <CAS>
309-29-5

>  <URL>
http://selleckchem.com/products/doxapram.html

$$$$
