S5252 Ozagrel sodium.cdx
 OpenBabel08302521383D

 28 29  0  0  0  0  0  0  0  0999 V2000
    0.9604   -0.0566   -0.1917 C   0  0  0  0  0  0  0  0  0  0  0  0
    0.1953    1.2244    0.1461 C   0  0  0  0  0  0  0  0  0  0  0  0
   -1.1165    1.2292    0.4310 C   0  0  0  0  0  0  0  0  0  0  0  0
    0.2971   -1.1297   -0.1820 O   0  0  0  0  0  0  0  0  0  0  0  0
    2.1848    0.1366   -0.4422 O   0  5  0  0  0  0  0  0  0  0  0  0
   -1.9072    2.4250    0.7537 C   0  0  0  0  0  0  0  0  0  0  0  0
   -1.6084    3.6886    0.2322 C   0  0  0  0  0  0  0  0  0  0  0  0
   -2.4119    4.7960    0.5270 C   0  0  0  0  0  0  0  0  0  0  0  0
   -3.5358    4.6635    1.3530 C   0  0  0  0  0  0  0  0  0  0  0  0
   -3.8439    3.3964    1.8665 C   0  0  0  0  0  0  0  0  0  0  0  0
   -3.0405    2.2907    1.5646 C   0  0  0  0  0  0  0  0  0  0  0  0
   -4.3844    5.8602    1.6917 C   0  0  0  0  0  0  0  0  0  0  0  0
   -6.7115    5.5630    0.7926 C   0  0  0  0  0  0  0  0  0  0  0  0
   -7.4836    6.0486   -0.1526 N   0  0  0  0  0  0  0  0  0  0  0  0
   -6.6888    6.9136   -0.8592 C   0  0  0  0  0  0  0  0  0  0  0  0
   -5.4237    6.9671   -0.3188 C   0  0  0  0  0  0  0  0  0  0  0  0
   -5.4495    6.0853    0.7281 N   0  0  0  0  0  0  0  0  0  0  0  0
    0.7904    2.1312    0.1473 H   0  0  0  0  0  0  0  0  0  0  0  0
   -1.6508    0.2796    0.4356 H   0  0  0  0  0  0  0  0  0  0  0  0
   -0.7474    3.8178   -0.4199 H   0  0  0  0  0  0  0  0  0  0  0  0
   -2.1425    5.7605    0.1030 H   0  0  0  0  0  0  0  0  0  0  0  0
   -4.7071    3.2512    2.5116 H   0  0  0  0  0  0  0  0  0  0  0  0
   -3.2978    1.3161    1.9748 H   0  0  0  0  0  0  0  0  0  0  0  0
   -4.8463    5.7453    2.6797 H   0  0  0  0  0  0  0  0  0  0  0  0
   -3.7723    6.7693    1.7337 H   0  0  0  0  0  0  0  0  0  0  0  0
   -7.0139    4.8471    1.5456 H   0  0  0  0  0  0  0  0  0  0  0  0
   -7.0702    7.4600   -1.7108 H   0  0  0  0  0  0  0  0  0  0  0  0
   -4.5453    7.5358   -0.5848 H   0  0  0  0  0  0  0  0  0  0  0  0
  1  2  1  0  0  0  0
  1  4  2  0  0  0  0
  1  5  1  0  0  0  0
  2  3  2  0  0  0  0
  2 18  1  0  0  0  0
  3  6  1  0  0  0  0
  3 19  1  0  0  0  0
  6  7  2  0  0  0  0
  6 11  1  0  0  0  0
  7  8  1  0  0  0  0
  7 20  1  0  0  0  0
  8  9  2  0  0  0  0
  8 21  1  0  0  0  0
  9 10  1  0  0  0  0
  9 12  1  0  0  0  0
 10 11  2  0  0  0  0
 10 22  1  0  0  0  0
 11 23  1  0  0  0  0
 12 17  1  0  0  0  0
 12 24  1  0  0  0  0
 12 25  1  0  0  0  0
 13 14  2  0  0  0  0
 13 17  1  0  0  0  0
 13 26  1  0  0  0  0
 14 15  1  0  0  0  0
 15 16  2  0  0  0  0
 15 27  1  0  0  0  0
 16 17  1  0  0  0  0
 16 28  1  0  0  0  0
M  CHG  1   5  -1
M  END
>  <Mol_ID>
7820

>  <Formula>
C13H11N2NaO2

>  <MolWeight>
250.22841

>  <Cat>
S5252

>  <Name>
Ozagrel sodium

>  <Synonyms>
KCT-0809, Cataclot, Xanbo

>  <Target>
P450 (e.g. CYP17),Prostaglandin Receptor

>  <Form>
sodium

>  <CAS>
189224-26-8

>  <URL>
http://selleckchem.com/products/ozagrel-sodium.html

$$$$
