S5266 Stiripentol.cdx
 OpenBabel08302520013D

 35 36  0  0  0  0  0  0  0  0999 V2000
   -0.1665   -0.5575    0.4320 C   0  0  0  0  0  0  0  0  0  0  0  0
   -0.1954    0.7258   -0.0457 C   0  0  0  0  0  0  0  0  0  0  0  0
    0.9885   -1.3126    0.4324 C   0  0  0  0  0  0  0  0  0  0  0  0
   -1.3775   -0.9742    0.8912 O   0  0  0  0  0  0  0  0  0  0  0  0
    0.9363    1.3349   -0.5418 C   0  0  0  0  0  0  0  0  0  0  0  0
   -1.4324    1.2845    0.0447 O   0  0  0  0  0  0  0  0  0  0  0  0
    2.1630   -0.7400   -0.0808 C   0  0  0  0  0  0  0  0  0  0  0  0
   -2.1651    0.2146    0.6801 C   0  0  0  0  0  0  0  0  0  0  0  0
    2.1270    0.5938   -0.5477 C   0  0  0  0  0  0  0  0  0  0  0  0
    3.4456   -1.4667   -0.0847 C   0  0  0  0  0  0  0  0  0  0  0  0
    3.5506   -2.7984   -0.2024 C   0  0  0  0  0  0  0  0  0  0  0  0
    4.8370   -3.5744   -0.1205 C   0  0  3  0  0  0  0  0  0  0  0  0
    4.8608   -4.6174    1.0429 C   0  0  0  0  0  0  0  0  0  0  0  0
    5.0334   -4.2164   -1.3783 O   0  0  0  0  0  0  0  0  0  0  0  0
    3.7421   -5.6738    0.9123 C   0  0  0  0  0  0  0  0  0  0  0  0
    6.2126   -5.3586    1.0326 C   0  0  0  0  0  0  0  0  0  0  0  0
    4.7051   -3.9035    2.4007 C   0  0  0  0  0  0  0  0  0  0  0  0
    0.9597   -2.3177    0.8370 H   0  0  0  0  0  0  0  0  0  0  0  0
    0.9073    2.3538   -0.9114 H   0  0  0  0  0  0  0  0  0  0  0  0
   -3.0281   -0.0441    0.0562 H   0  0  0  0  0  0  0  0  0  0  0  0
   -2.5263    0.5682    1.6528 H   0  0  0  0  0  0  0  0  0  0  0  0
    3.0311    1.0640   -0.9300 H   0  0  0  0  0  0  0  0  0  0  0  0
    4.3426   -0.8578    0.0175 H   0  0  0  0  0  0  0  0  0  0  0  0
    2.6543   -3.3969   -0.3401 H   0  0  0  0  0  0  0  0  0  0  0  0
    5.6826   -2.8853    0.0054 H   0  0  0  0  0  0  0  0  0  0  0  0
    4.2380   -4.7364   -1.5777 H   0  0  0  0  0  0  0  0  0  0  0  0
    3.8141   -6.2272   -0.0298 H   0  0  0  0  0  0  0  0  0  0  0  0
    3.7979   -6.4062    1.7254 H   0  0  0  0  0  0  0  0  0  0  0  0
    2.7457   -5.2222    0.9629 H   0  0  0  0  0  0  0  0  0  0  0  0
    7.0464   -4.6577    1.1496 H   0  0  0  0  0  0  0  0  0  0  0  0
    6.2712   -6.0845    1.8516 H   0  0  0  0  0  0  0  0  0  0  0  0
    6.3632   -5.9071    0.0964 H   0  0  0  0  0  0  0  0  0  0  0  0
    5.4926   -3.1556    2.5456 H   0  0  0  0  0  0  0  0  0  0  0  0
    3.7387   -3.3940    2.4836 H   0  0  0  0  0  0  0  0  0  0  0  0
    4.7657   -4.6164    3.2308 H   0  0  0  0  0  0  0  0  0  0  0  0
  1  2  1  0  0  0  0
  1  3  2  0  0  0  0
  1  4  1  0  0  0  0
  2  5  2  0  0  0  0
  2  6  1  0  0  0  0
  3  7  1  0  0  0  0
  3 18  1  0  0  0  0
  4  8  1  0  0  0  0
  5  9  1  0  0  0  0
  5 19  1  0  0  0  0
  6  8  1  0  0  0  0
  7 10  1  0  0  0  0
  7  9  2  0  0  0  0
  8 20  1  0  0  0  0
  8 21  1  0  0  0  0
  9 22  1  0  0  0  0
 10 11  2  0  0  0  0
 10 23  1  0  0  0  0
 11 12  1  0  0  0  0
 11 24  1  0  0  0  0
 12 13  1  0  0  0  0
 12 14  1  0  0  0  0
 12 25  1  0  0  0  0
 13 15  1  0  0  0  0
 13 16  1  0  0  0  0
 13 17  1  0  0  0  0
 14 26  1  0  0  0  0
 15 27  1  0  0  0  0
 15 28  1  0  0  0  0
 15 29  1  0  0  0  0
 16 30  1  0  0  0  0
 16 31  1  0  0  0  0
 16 32  1  0  0  0  0
 17 33  1  0  0  0  0
 17 34  1  0  0  0  0
 17 35  1  0  0  0  0
M  END
>  <Mol_ID>
2980

>  <Formula>
C14H18O3

>  <MolWeight>
234.29092

>  <Cat>
S5266

>  <Name>
Stiripentol

>  <Synonyms>
BCX2600

>  <Target>
P450 (e.g. CYP17)

>  <Form>
Dioxolane

>  <CAS>
49763-96-4

>  <URL>
http://selleckchem.com/products/stiripentol.html

$$$$
