S5262 UNC-926.cdx
 OpenBabel08302520013D

 41 43  0  0  0  0  0  0  0  0999 V2000
    0.3400    0.8383   -1.9878 C   0  0  0  0  0  0  0  0  0  0  0  0
    0.8777   -0.3301   -2.5255 C   0  0  0  0  0  0  0  0  0  0  0  0
    2.1830   -0.6992   -2.2077 C   0  0  0  0  0  0  0  0  0  0  0  0
    2.9410    0.1009   -1.3537 C   0  0  0  0  0  0  0  0  0  0  0  0
    2.4368    1.3200   -0.8845 C   0  0  0  0  0  0  0  0  0  0  0  0
    1.1137    1.6733   -1.1819 C   0  0  0  0  0  0  0  0  0  0  0  0
   -1.4691    1.2693   -2.3275 Br  0  0  0  0  0  0  0  0  0  0  0  0
    3.2223    2.2021    0.0234 C   0  0  0  0  0  0  0  0  0  0  0  0
    4.6157    2.2380   -0.0517 N   0  0  0  0  0  0  0  0  0  0  0  0
    5.3475    2.8268    1.0595 C   0  0  0  0  0  0  0  0  0  0  0  0
    6.1306    4.0555    0.6231 C   0  0  0  0  0  0  0  0  0  0  0  0
    7.0418    3.7485   -0.5774 C   0  0  0  0  0  0  0  0  0  0  0  0
    6.2514    3.0677   -1.7102 C   0  0  0  0  0  0  0  0  0  0  0  0
    5.4404    1.8789   -1.2075 C   0  0  0  0  0  0  0  0  0  0  0  0
    8.7805    5.4553   -0.1659 C   0  0  0  0  0  0  0  0  0  0  0  0
    8.0879    6.6368    0.4908 C   0  0  0  0  0  0  0  0  0  0  0  0
    7.1058    7.1331   -0.5539 C   0  0  0  0  0  0  0  0  0  0  0  0
    7.0190    6.0266   -1.5978 C   0  0  0  0  0  0  0  0  0  0  0  0
    7.8122    4.8894   -1.1117 N   0  0  0  0  0  0  0  0  0  0  0  0
    2.5923    2.8540    0.8561 O   0  0  0  0  0  0  0  0  0  0  0  0
    0.2831   -0.9716   -3.1697 H   0  0  0  0  0  0  0  0  0  0  0  0
    2.6065   -1.6167   -2.6081 H   0  0  0  0  0  0  0  0  0  0  0  0
    3.9259   -0.2461   -1.0554 H   0  0  0  0  0  0  0  0  0  0  0  0
    0.6867    2.5829   -0.7641 H   0  0  0  0  0  0  0  0  0  0  0  0
    6.0289    2.0580    1.4427 H   0  0  0  0  0  0  0  0  0  0  0  0
    4.6784    3.0951    1.8843 H   0  0  0  0  0  0  0  0  0  0  0  0
    6.7273    4.3798    1.4805 H   0  0  0  0  0  0  0  0  0  0  0  0
    5.4273    4.8587    0.3762 H   0  0  0  0  0  0  0  0  0  0  0  0
    7.7782    3.0022   -0.2429 H   0  0  0  0  0  0  0  0  0  0  0  0
    5.5548    3.7685   -2.1834 H   0  0  0  0  0  0  0  0  0  0  0  0
    6.9369    2.7242   -2.4956 H   0  0  0  0  0  0  0  0  0  0  0  0
    4.8342    1.5350   -2.0462 H   0  0  0  0  0  0  0  0  0  0  0  0
    6.1028    1.0647   -0.8974 H   0  0  0  0  0  0  0  0  0  0  0  0
    9.6454    5.8168   -0.7369 H   0  0  0  0  0  0  0  0  0  0  0  0
    9.1638    4.7305    0.5609 H   0  0  0  0  0  0  0  0  0  0  0  0
    7.5492    6.3303    1.3933 H   0  0  0  0  0  0  0  0  0  0  0  0
    8.7957    7.4136    0.7901 H   0  0  0  0  0  0  0  0  0  0  0  0
    6.1274    7.3292   -0.0990 H   0  0  0  0  0  0  0  0  0  0  0  0
    7.4568    8.0560   -1.0115 H   0  0  0  0  0  0  0  0  0  0  0  0
    5.9739    5.7958   -1.8348 H   0  0  0  0  0  0  0  0  0  0  0  0
    7.4708    6.3797   -2.5328 H   0  0  0  0  0  0  0  0  0  0  0  0
  1  2  2  0  0  0  0
  1  7  1  0  0  0  0
  2  3  1  0  0  0  0
  2 21  1  0  0  0  0
  3  4  2  0  0  0  0
  3 22  1  0  0  0  0
  4  5  1  0  0  0  0
  4 23  1  0  0  0  0
  5  6  2  0  0  0  0
  6  1  1  0  0  0  0
  6 24  1  0  0  0  0
  8  5  1  0  0  0  0
  8 20  2  0  0  0  0
  9  8  1  0  0  0  0
  9 10  1  0  0  0  0
 10 11  1  0  0  0  0
 10 25  1  0  0  0  0
 10 26  1  0  0  0  0
 11 12  1  0  0  0  0
 11 27  1  0  0  0  0
 11 28  1  0  0  0  0
 12 13  1  0  0  0  0
 12 19  1  0  0  0  0
 12 29  1  0  0  0  0
 13 14  1  0  0  0  0
 13 30  1  0  0  0  0
 13 31  1  0  0  0  0
 14  9  1  0  0  0  0
 14 32  1  0  0  0  0
 14 33  1  0  0  0  0
 15 16  1  0  0  0  0
 15 34  1  0  0  0  0
 15 35  1  0  0  0  0
 16 17  1  0  0  0  0
 16 36  1  0  0  0  0
 16 37  1  0  0  0  0
 17 18  1  0  0  0  0
 17 38  1  0  0  0  0
 17 39  1  0  0  0  0
 18 19  1  0  0  0  0
 18 40  1  0  0  0  0
 18 41  1  0  0  0  0
 19 15  1  0  0  0  0
M  END
>  <Mol_ID>
2899

>  <Formula>
C16H21BrN2O

>  <MolWeight>
337.25474

>  <Cat>
S5262

>  <Name>
UNC-926

>  <Synonyms>
N/A

>  <Target>
Epigenetic Reader Domain

>  <Form>
free base

>  <CAS>
1184136-10-4

>  <URL>
http://selleckchem.com/products/unc-926.html

$$$$
