S5293 Nimustine Hydrochloride.cdx
 OpenBabel08302520013D

 31 31  0  0  0  0  0  0  0  0999 V2000
   -1.5890    1.5243   -1.1769 N   0  0  0  0  0  0  0  0  0  0  0  0
   -0.6317    2.5433   -1.0467 C   0  0  0  0  0  0  0  0  0  0  0  0
   -0.9201    3.7394   -0.9877 O   0  0  0  0  0  0  0  0  0  0  0  0
   -1.1505    0.1997   -1.3181 N   0  0  0  0  0  0  0  0  0  0  0  0
   -1.9989   -0.5813   -1.7649 O   0  0  0  0  0  0  0  0  0  0  0  0
   -3.0063    1.8625   -1.3393 C   0  0  0  0  0  0  0  0  0  0  0  0
   -3.9485    1.1528   -0.3696 C   0  0  0  0  0  0  0  0  0  0  0  0
    0.6853    2.1224   -0.9972 N   0  0  0  0  0  0  0  0  0  0  0  0
    1.7974    3.0454   -0.9208 C   0  0  0  0  0  0  0  0  0  0  0  0
    4.1412    3.7284   -4.3610 C   0  0  0  0  0  0  0  0  0  0  0  0
    2.8202    3.5727   -4.5480 N   0  0  0  0  0  0  0  0  0  0  0  0
    2.0647    3.3308   -3.4650 C   0  0  0  0  0  0  0  0  0  0  0  0
    2.5848    3.2086   -2.1891 C   0  0  0  0  0  0  0  0  0  0  0  0
    3.9598    3.3628   -2.1197 C   0  0  0  0  0  0  0  0  0  0  0  0
    4.7563    3.6216   -3.1744 N   0  0  0  0  0  0  0  0  0  0  0  0
    4.9604    4.1079   -5.5541 C   0  0  0  0  0  0  0  0  0  0  0  0
    0.7091    3.1822   -3.7424 N   0  0  0  0  0  0  0  0  0  0  0  0
   -3.1429    2.9413   -1.2050 H   0  0  0  0  0  0  0  0  0  0  0  0
   -3.2867    1.6409   -2.3751 H   0  0  0  0  0  0  0  0  0  0  0  0
   -3.6584    1.3342    0.6697 H   0  0  0  0  0  0  0  0  0  0  0  0
   -4.9729    1.5140   -0.5100 H   0  0  0  0  0  0  0  0  0  0  0  0
   -3.9685    0.0705   -0.5269 H   0  0  0  0  0  0  0  0  0  0  0  0
    0.8886    1.2324   -1.4285 H   0  0  0  0  0  0  0  0  0  0  0  0
    1.4633    4.0280   -0.5715 H   0  0  0  0  0  0  0  0  0  0  0  0
    2.4485    2.6256   -0.1446 H   0  0  0  0  0  0  0  0  0  0  0  0
    4.4899    3.2938   -1.1723 H   0  0  0  0  0  0  0  0  0  0  0  0
    4.8485    3.3584   -6.3427 H   0  0  0  0  0  0  0  0  0  0  0  0
    4.6214    5.0758   -5.9372 H   0  0  0  0  0  0  0  0  0  0  0  0
    6.0206    4.1912   -5.2976 H   0  0  0  0  0  0  0  0  0  0  0  0
    0.5871    3.3589   -4.7366 H   0  0  0  0  0  0  0  0  0  0  0  0
    0.1457    3.8131   -3.1773 H   0  0  0  0  0  0  0  0  0  0  0  0
  1  2  1  0  0  0  0
  1  4  1  0  0  0  0
  1  6  1  0  0  0  0
  2  3  2  0  0  0  0
  2  8  1  0  0  0  0
  4  5  2  0  0  0  0
  6  7  1  0  0  0  0
  6 18  1  0  0  0  0
  6 19  1  0  0  0  0
  7 20  1  0  0  0  0
  7 21  1  0  0  0  0
  7 22  1  0  0  0  0
  8  9  1  0  0  0  0
  8 23  1  0  0  0  0
  9 13  1  0  0  0  0
  9 24  1  0  0  0  0
  9 25  1  0  0  0  0
 10 11  2  0  0  0  0
 10 15  1  0  0  0  0
 10 16  1  0  0  0  0
 11 12  1  0  0  0  0
 12 13  2  0  0  0  0
 12 17  1  0  0  0  0
 13 14  1  0  0  0  0
 14 15  2  0  0  0  0
 14 26  1  0  0  0  0
 16 27  1  0  0  0  0
 16 28  1  0  0  0  0
 16 29  1  0  0  0  0
 17 30  1  0  0  0  0
 17 31  1  0  0  0  0
M  END
>  <Mol_ID>
2916

>  <Formula>
C9H14Cl2N6O2

>  <MolWeight>
309.15246

>  <Cat>
S5293

>  <Name>
Nimustine Hydrochloride

>  <Synonyms>
Nidran hydrochloride

>  <Target>
DNA/RNA Synthesis

>  <Form>
hydrochloride

>  <CAS>
55661-38-6

>  <URL>
http://selleckchem.com/products/nimustine-hydrochloride.html

$$$$
