S5302 6-Methoxy-2-naphthoic acid.cdx
 OpenBabel08302520013D

 25 26  0  0  0  0  0  0  0  0999 V2000
   -0.0002   -0.7521   -0.0105 C   0  0  0  0  0  0  0  0  0  0  0  0
   -0.0099    0.6610   -0.0162 C   0  0  0  0  0  0  0  0  0  0  0  0
    1.2272   -1.4375   -0.0070 C   0  0  0  0  0  0  0  0  0  0  0  0
   -1.2228   -1.4408   -0.0015 C   0  0  0  0  0  0  0  0  0  0  0  0
   -1.2407    1.3391   -0.0121 C   0  0  0  0  0  0  0  0  0  0  0  0
    1.2089    1.3569   -0.0160 C   0  0  0  0  0  0  0  0  0  0  0  0
    2.4367   -0.7303   -0.0315 C   0  0  0  0  0  0  0  0  0  0  0  0
   -2.4391   -0.7486   -0.0023 C   0  0  0  0  0  0  0  0  0  0  0  0
   -2.4528    0.6435   -0.0079 C   0  0  0  0  0  0  0  0  0  0  0  0
    2.4231    0.6676   -0.0224 C   0  0  0  0  0  0  0  0  0  0  0  0
    3.7546   -1.4149   -0.0165 C   0  0  0  0  0  0  0  0  0  0  0  0
   -3.5678    1.4357   -0.0069 O   0  0  0  0  0  0  0  0  0  0  0  0
    3.7632   -2.6096   -0.6427 O   0  0  0  0  0  0  0  0  0  0  0  0
    4.7501   -0.9202    0.4859 O   0  0  0  0  0  0  0  0  0  0  0  0
   -4.8274    0.7748   -0.0211 C   0  0  0  0  0  0  0  0  0  0  0  0
    1.2260   -2.5234    0.0489 H   0  0  0  0  0  0  0  0  0  0  0  0
   -1.2437   -2.5284    0.0063 H   0  0  0  0  0  0  0  0  0  0  0  0
   -1.2645    2.4278   -0.0105 H   0  0  0  0  0  0  0  0  0  0  0  0
    1.2220    2.4456   -0.0049 H   0  0  0  0  0  0  0  0  0  0  0  0
   -3.3552   -1.3300    0.0046 H   0  0  0  0  0  0  0  0  0  0  0  0
    3.3580    1.2251   -0.0127 H   0  0  0  0  0  0  0  0  0  0  0  0
    2.9693   -2.8075   -1.1711 H   0  0  0  0  0  0  0  0  0  0  0  0
   -4.9463    0.1719   -0.9280 H   0  0  0  0  0  0  0  0  0  0  0  0
   -4.9643    0.1664    0.8791 H   0  0  0  0  0  0  0  0  0  0  0  0
   -5.6082    1.5415   -0.0267 H   0  0  0  0  0  0  0  0  0  0  0  0
  1  2  1  0  0  0  0
  1  3  2  0  0  0  0
  1  4  1  0  0  0  0
  2  5  1  0  0  0  0
  2  6  2  0  0  0  0
  3  7  1  0  0  0  0
  3 16  1  0  0  0  0
  4  8  2  0  0  0  0
  4 17  1  0  0  0  0
  5  9  2  0  0  0  0
  5 18  1  0  0  0  0
  6 10  1  0  0  0  0
  6 19  1  0  0  0  0
  7 11  1  0  0  0  0
  7 10  2  0  0  0  0
  8  9  1  0  0  0  0
  8 20  1  0  0  0  0
  9 12  1  0  0  0  0
 10 21  1  0  0  0  0
 11 13  1  0  0  0  0
 11 14  2  0  0  0  0
 12 15  1  0  0  0  0
 13 22  1  0  0  0  0
 15 23  1  0  0  0  0
 15 24  1  0  0  0  0
 15 25  1  0  0  0  0
M  END
>  <Mol_ID>
2860

>  <Formula>
C12H10O3

>  <MolWeight>
202.206

>  <Cat>
S5302

>  <Name>
6-Methoxy-2-naphthoic acid

>  <Synonyms>
6-Methoxy-2-naphthalenecarboxylic acid

>  <Target>
NMDAR

>  <Form>
free base

>  <CAS>
2471-70-7

>  <URL>
http://selleckchem.com/products/6-methoxy-2-naphthoic-acid.html

$$$$
