S5318 Acacetin.cdx
 OpenBabel08302520013D

 33 35  0  0  0  0  0  0  0  0999 V2000
   -0.4012    0.3160   -0.0173 C   0  0  0  0  0  0  0  0  0  0  0  0
    0.0416   -1.0108   -0.0056 C   0  0  0  0  0  0  0  0  0  0  0  0
   -1.8581    0.5593   -0.0406 C   0  0  0  0  0  0  0  0  0  0  0  0
    0.5410    1.3542   -0.0161 C   0  0  0  0  0  0  0  0  0  0  0  0
   -0.8109   -2.0894   -0.0170 O   0  0  0  0  0  0  0  0  0  0  0  0
    1.4076   -1.2997    0.0111 C   0  0  0  0  0  0  0  0  0  0  0  0
   -2.7181   -0.6274   -0.1020 C   0  0  0  0  0  0  0  0  0  0  0  0
   -2.3848    1.6629   -0.0080 O   0  0  0  0  0  0  0  0  0  0  0  0
    1.9067    1.0688   -0.0084 C   0  0  0  0  0  0  0  0  0  0  0  0
    0.1339    2.6563   -0.0334 O   0  0  0  0  0  0  0  0  0  0  0  0
   -2.1741   -1.8507   -0.0722 C   0  0  0  0  0  0  0  0  0  0  0  0
    2.3281   -0.2578    0.0029 C   0  0  0  0  0  0  0  0  0  0  0  0
   -3.0194   -3.0610   -0.0763 C   0  0  0  0  0  0  0  0  0  0  0  0
    3.6523   -0.5794    0.0001 O   0  0  0  0  0  0  0  0  0  0  0  0
   -2.5733   -4.2463   -0.6745 C   0  0  0  0  0  0  0  0  0  0  0  0
   -4.2703   -3.0710    0.5617 C   0  0  0  0  0  0  0  0  0  0  0  0
   -3.3466   -5.4130   -0.6229 C   0  0  0  0  0  0  0  0  0  0  0  0
   -5.0397   -4.2315    0.6094 C   0  0  0  0  0  0  0  0  0  0  0  0
   -4.5820   -5.4094    0.0269 C   0  0  0  0  0  0  0  0  0  0  0  0
   -5.4257   -6.4760    0.1631 O   0  0  0  0  0  0  0  0  0  0  0  0
   -4.9901   -7.7089   -0.3909 C   0  0  0  0  0  0  0  0  0  0  0  0
    1.7536   -2.3296    0.0234 H   0  0  0  0  0  0  0  0  0  0  0  0
   -3.7806   -0.4345   -0.1539 H   0  0  0  0  0  0  0  0  0  0  0  0
    2.6335    1.8737   -0.0151 H   0  0  0  0  0  0  0  0  0  0  0  0
    0.8948    3.2574   -0.0001 H   0  0  0  0  0  0  0  0  0  0  0  0
    4.1819    0.2335   -0.0477 H   0  0  0  0  0  0  0  0  0  0  0  0
   -1.6143   -4.2774   -1.1887 H   0  0  0  0  0  0  0  0  0  0  0  0
   -4.6597   -2.1805    1.0492 H   0  0  0  0  0  0  0  0  0  0  0  0
   -2.9502   -6.3059   -1.0935 H   0  0  0  0  0  0  0  0  0  0  0  0
   -6.0010   -4.2164    1.1199 H   0  0  0  0  0  0  0  0  0  0  0  0
   -4.7993   -7.6160   -1.4649 H   0  0  0  0  0  0  0  0  0  0  0  0
   -4.1081   -8.0843    0.1381 H   0  0  0  0  0  0  0  0  0  0  0  0
   -5.7972   -8.4355   -0.2602 H   0  0  0  0  0  0  0  0  0  0  0  0
  1  2  2  0  0  0  0
  1  3  1  0  0  0  0
  1  4  1  0  0  0  0
  2  5  1  0  0  0  0
  2  6  1  0  0  0  0
  3  7  1  0  0  0  0
  3  8  2  0  0  0  0
  4  9  2  0  0  0  0
  4 10  1  0  0  0  0
  5 11  1  0  0  0  0
  6 12  2  0  0  0  0
  6 22  1  0  0  0  0
  7 11  2  0  0  0  0
  7 23  1  0  0  0  0
  9 12  1  0  0  0  0
  9 24  1  0  0  0  0
 10 25  1  0  0  0  0
 11 13  1  0  0  0  0
 12 14  1  0  0  0  0
 13 15  2  0  0  0  0
 13 16  1  0  0  0  0
 14 26  1  0  0  0  0
 15 17  1  0  0  0  0
 15 27  1  0  0  0  0
 16 18  2  0  0  0  0
 16 28  1  0  0  0  0
 17 19  2  0  0  0  0
 17 29  1  0  0  0  0
 18 19  1  0  0  0  0
 18 30  1  0  0  0  0
 19 20  1  0  0  0  0
 20 21  1  0  0  0  0
 21 31  1  0  0  0  0
 21 32  1  0  0  0  0
 21 33  1  0  0  0  0
M  END
>  <Mol_ID>
2904

>  <Formula>
C16H12O5

>  <MolWeight>
284.26348

>  <Cat>
S5318

>  <Name>
Acacetin

>  <Synonyms>
Linarigenin, 5,7-dihydroxy-4'-methoxyflavone, 4'-Methoxyapigenin

>  <Target>
Immunology & Inflammation related

>  <Form>
free base

>  <CAS>
480-44-4

>  <URL>
http://selleckchem.com/products/acacetin.html

$$$$
