S5326 Dolasetron.cdx
 OpenBabel08302520142D

 44 48  0  0  0  0  0  0  0  0999 V2000
    3.6201    2.4890    0.0000 C   0  0  2  0  0  0  0  0  0  0  0  0
    3.6336    3.8759    0.0000 N   0  0  2  0  0  0  0  0  0  0  0  0
    2.4074    1.8044    0.0000 C   0  0  0  0  0  0  0  0  0  0  0  0
    4.8386    1.7918    0.0000 C   0  0  0  0  0  0  0  0  0  0  0  0
    4.8615    4.5605    0.0000 C   0  0  1  0  0  0  0  0  0  0  0  0
    2.4218    4.5731    0.0000 C   0  0  0  0  0  0  0  0  0  0  0  0
    1.1958    2.5005    0.0000 C   0  0  3  0  0  0  0  0  0  0  0  0
    6.0548    2.4711    0.0000 C   0  0  1  0  0  0  0  0  0  0  0  0
    4.6358    2.9495    0.0000 C   0  0  0  0  0  0  0  0  0  0  0  0
    6.0650    3.8633    0.0000 C   0  0  0  0  0  0  0  0  0  0  0  0
    1.2110    3.9033    0.0000 C   0  0  0  0  0  0  0  0  0  0  0  0
    7.2658    1.7719    0.0000 O   0  0  0  0  0  0  0  0  0  0  0  0
    0.0000    4.6025    0.0000 O   0  0  0  0  0  0  0  0  0  0  0  0
    8.4723    2.4685    0.0000 C   0  0  0  0  0  0  0  0  0  0  0  0
    9.6856    1.7680    0.0000 C   0  0  0  0  0  0  0  0  0  0  0  0
    8.4723    3.8643    0.0000 O   0  0  0  0  0  0  0  0  0  0  0  0
   10.8923    2.3207    0.0000 C   0  0  0  0  0  0  0  0  0  0  0  0
    9.8165    0.3620    0.0000 C   0  0  0  0  0  0  0  0  0  0  0  0
   11.9108    1.2118    0.0000 C   0  0  0  0  0  0  0  0  0  0  0  0
   11.3723    3.6829    0.0000 C   0  0  0  0  0  0  0  0  0  0  0  0
   11.2098    0.0000    0.0000 N   0  0  0  0  0  0  0  0  0  0  0  0
   13.3099    1.5623    0.0000 C   0  0  0  0  0  0  0  0  0  0  0  0
   12.7957    3.9623    0.0000 C   0  0  0  0  0  0  0  0  0  0  0  0
   13.7355    2.9012    0.0000 C   0  0  0  0  0  0  0  0  0  0  0  0
    4.5483    3.0213    0.0000 H   0  0  0  0  0  0  0  0  0  0  0  0
    2.4034    0.7344    0.0000 H   0  0  0  0  0  0  0  0  0  0  0  0
    1.4803    1.2702    0.0000 H   0  0  0  0  0  0  0  0  0  0  0  0
    4.8331    0.7218    0.0000 H   0  0  0  0  0  0  0  0  0  0  0  0
    5.7600    1.2478    0.0000 H   0  0  0  0  0  0  0  0  0  0  0  0
    4.2567    3.6778    0.0000 H   0  0  0  0  0  0  0  0  0  0  0  0
    2.4308    5.6431    0.0000 H   0  0  0  0  0  0  0  0  0  0  0  0
    1.5024    5.1204    0.0000 H   0  0  0  0  0  0  0  0  0  0  0  0
    2.1248    3.0315    0.0000 H   0  0  0  0  0  0  0  0  0  0  0  0
    6.0472    1.4011    0.0000 H   0  0  0  0  0  0  0  0  0  0  0  0
    5.3888    2.1893    0.0000 H   0  0  0  0  0  0  0  0  0  0  0  0
    4.2889    1.9373    0.0000 H   0  0  0  0  0  0  0  0  0  0  0  0
    6.9940    4.3942    0.0000 H   0  0  0  0  0  0  0  0  0  0  0  0
    6.9885    3.3229    0.0000 H   0  0  0  0  0  0  0  0  0  0  0  0
    9.0303   -0.3065    0.0000 H   0  0  0  0  0  0  0  0  0  0  0  0
   10.6973    4.4636    0.0000 H   0  0  0  0  0  0  0  0  0  0  0  0
   11.5896   -0.9083    0.0000 H   0  0  0  0  0  0  0  0  0  0  0  0
   14.0166    0.8102    0.0000 H   0  0  0  0  0  0  0  0  0  0  0  0
   13.1263    4.9399    0.0000 H   0  0  0  0  0  0  0  0  0  0  0  0
   14.7451    3.1149    0.0000 H   0  0  0  0  0  0  0  0  0  0  0  0
  1  2  1  0  0  0  0
  1  3  1  0  0  0  0
  1  4  1  0  0  0  0
  1 25  1  6  0  0  0
  2  5  1  0  0  0  0
  2  6  1  1  0  0  0
  3  7  1  0  0  0  0
  3 26  1  0  0  0  0
  3 27  1  0  0  0  0
  4  8  1  0  0  0  0
  4 28  1  0  0  0  0
  4 29  1  0  0  0  0
  5  9  1  0  0  0  0
  5 10  1  0  0  0  0
  5 30  1  1  0  0  0
  6 11  1  0  0  0  0
  6 31  1  0  0  0  0
  6 32  1  0  0  0  0
  7 11  1  0  0  0  0
  7 33  1  0  0  0  0
  8 12  1  0  0  0  0
  8 10  1  0  0  0  0
  8 34  1  6  0  0  0
  9  7  1  0  0  0  0
  9 35  1  0  0  0  0
  9 36  1  0  0  0  0
 10 37  1  0  0  0  0
 10 38  1  0  0  0  0
 11 13  2  0  0  0  0
 12 14  1  0  0  0  0
 14 15  1  0  0  0  0
 14 16  2  0  0  0  0
 15 17  1  0  0  0  0
 15 18  2  0  0  0  0
 17 19  2  0  0  0  0
 17 20  1  0  0  0  0
 18 21  1  0  0  0  0
 18 39  1  0  0  0  0
 19 22  1  0  0  0  0
 19 21  1  0  0  0  0
 20 23  2  0  0  0  0
 20 40  1  0  0  0  0
 21 41  1  0  0  0  0
 22 24  2  0  0  0  0
 22 42  1  0  0  0  0
 23 24  1  0  0  0  0
 23 43  1  0  0  0  0
 24 44  1  0  0  0  0
M  END
>  <Mol_ID>
3102

>  <Formula>
C19H20N2O3

>  <MolWeight>
324.3737

>  <Cat>
S5326

>  <Name>
Dolasetron

>  <Synonyms>
MDL-73147EF

>  <Target>
5-HT Receptor

>  <Form>
free base

>  <CAS>
115956-12-2

>  <URL>
https://www.selleckchem.com/products/dolasetron.html

$$$$
