S5325 Nitisinone.cdx
 OpenBabel08302520013D

 33 34  0  0  0  0  0  0  0  0999 V2000
    1.0524   -0.7425    1.3135 C   0  0  0  0  0  0  0  0  0  0  0  0
    1.4297    0.0141    0.0514 C   0  0  0  0  0  0  0  0  0  0  0  0
    0.9126    1.4388    0.1266 C   0  0  0  0  0  0  0  0  0  0  0  0
   -0.5476    1.5810    0.5008 C   0  0  0  0  0  0  0  0  0  0  0  0
   -0.7674    0.9178    1.8524 C   0  0  0  0  0  0  0  0  0  0  0  0
   -0.3625   -0.5519    1.8293 C   0  0  0  0  0  0  0  0  0  0  0  0
    1.7975   -1.5581    1.8538 O   0  0  0  0  0  0  0  0  0  0  0  0
    1.6155    2.4226   -0.0661 O   0  0  0  0  0  0  0  0  0  0  0  0
    2.8939   -0.0538   -0.3695 C   0  0  0  0  0  0  0  0  0  0  0  0
    3.9752   -0.0342    0.6549 C   0  0  0  0  0  0  0  0  0  0  0  0
    5.2093   -0.6737    0.4802 C   0  0  0  0  0  0  0  0  0  0  0  0
    6.1946   -0.6488    1.4859 C   0  0  0  0  0  0  0  0  0  0  0  0
    5.9498    0.0334    2.6874 C   0  0  0  0  0  0  0  0  0  0  0  0
    4.7257    0.6891    2.8542 C   0  0  0  0  0  0  0  0  0  0  0  0
    3.7652    0.6744    1.8446 C   0  0  0  0  0  0  0  0  0  0  0  0
    3.2147   -0.0449   -1.5527 O   0  0  0  0  0  0  0  0  0  0  0  0
    6.9734    0.0965    3.7948 C   0  0  0  0  0  0  0  0  0  0  0  0
    8.1190   -0.5681    3.5106 F   0  0  0  0  0  0  0  0  0  0  0  0
    7.3345    1.3781    4.0801 F   0  0  0  0  0  0  0  0  0  0  0  0
    6.5073   -0.4305    4.9599 F   0  0  0  0  0  0  0  0  0  0  0  0
    5.5196   -1.4223   -0.7224 N   0  3  0  0  0  0  0  0  0  0  0  0
    4.8572   -2.4440   -0.9413 O   0  0  0  0  0  0  0  0  0  0  0  0
    6.5072   -1.0434   -1.3740 O   0  5  0  0  0  0  0  0  0  0  0  0
    0.8721   -0.4866   -0.7526 H   0  0  0  0  0  0  0  0  0  0  0  0
   -0.8057    2.6438    0.5514 H   0  0  0  0  0  0  0  0  0  0  0  0
   -1.1595    1.1189   -0.2796 H   0  0  0  0  0  0  0  0  0  0  0  0
   -0.1847    1.4460    2.6184 H   0  0  0  0  0  0  0  0  0  0  0  0
   -1.8225    1.0005    2.1367 H   0  0  0  0  0  0  0  0  0  0  0  0
   -1.0317   -1.1307    1.1857 H   0  0  0  0  0  0  0  0  0  0  0  0
   -0.4260   -0.9600    2.8445 H   0  0  0  0  0  0  0  0  0  0  0  0
    7.1443   -1.1657    1.3363 H   0  0  0  0  0  0  0  0  0  0  0  0
    4.5091    1.2252    3.7789 H   0  0  0  0  0  0  0  0  0  0  0  0
    2.8493    1.2288    2.0250 H   0  0  0  0  0  0  0  0  0  0  0  0
  1  2  1  0  0  0  0
  1  6  1  0  0  0  0
  1  7  2  0  0  0  0
  2  3  1  0  0  0  0
  2  9  1  0  0  0  0
  2 24  1  0  0  0  0
  3  4  1  0  0  0  0
  3  8  2  0  0  0  0
  4  5  1  0  0  0  0
  4 25  1  0  0  0  0
  4 26  1  0  0  0  0
  5  6  1  0  0  0  0
  5 27  1  0  0  0  0
  5 28  1  0  0  0  0
  6 29  1  0  0  0  0
  6 30  1  0  0  0  0
  9 10  1  0  0  0  0
  9 16  2  0  0  0  0
 10 11  2  0  0  0  0
 10 15  1  0  0  0  0
 11 12  1  0  0  0  0
 11 21  1  0  0  0  0
 12 13  2  0  0  0  0
 12 31  1  0  0  0  0
 13 14  1  0  0  0  0
 13 17  1  0  0  0  0
 14 15  2  0  0  0  0
 14 32  1  0  0  0  0
 15 33  1  0  0  0  0
 17 18  1  0  0  0  0
 17 19  1  0  0  0  0
 17 20  1  0  0  0  0
 21 22  2  0  0  0  0
 21 23  1  0  0  0  0
M  CHG  2  21   1  23  -1
M  END
>  <Mol_ID>
2966

>  <Formula>
C14H10F3NO5

>  <MolWeight>
329.2281096

>  <Cat>
S5325

>  <Name>
Nitisinone

>  <Synonyms>
NTBC, Nitisone, SC0735

>  <Target>
Others

>  <Form>
free base

>  <CAS>
104206-65-7

>  <URL>
http://selleckchem.com/products/nitisinone.html

$$$$
