S5320 Octinoxate.cdx
 OpenBabel08302520013D

 47 47  0  0  0  0  0  0  0  0999 V2000
    6.9136   -2.7291    2.1716 C   0  0  0  0  0  0  0  0  0  0  0  0
    8.0157   -3.5464    1.8810 C   0  0  0  0  0  0  0  0  0  0  0  0
    6.1684   -3.0329    3.3197 C   0  0  0  0  0  0  0  0  0  0  0  0
    6.5406   -1.5081    1.4165 C   0  0  0  0  0  0  0  0  0  0  0  0
    8.3794   -4.6107    2.7331 C   0  0  0  0  0  0  0  0  0  0  0  0
    6.5295   -4.0881    4.1658 C   0  0  0  0  0  0  0  0  0  0  0  0
    7.0864   -1.0392    0.2755 C   0  0  0  0  0  0  0  0  0  0  0  0
    7.6451   -4.8759    3.8863 C   0  0  0  0  0  0  0  0  0  0  0  0
    6.7928    0.3006   -0.3065 C   0  0  0  0  0  0  0  0  0  0  0  0
    7.8951   -5.8481    4.8147 O   0  0  0  0  0  0  0  0  0  0  0  0
    5.7985    0.9471    0.3549 O   0  0  0  0  0  0  0  0  0  0  0  0
    7.4645    0.7624   -1.2163 O   0  0  0  0  0  0  0  0  0  0  0  0
    9.0556   -6.6496    4.6362 C   0  0  0  0  0  0  0  0  0  0  0  0
    5.7572    2.3850    0.2329 C   0  0  0  0  0  0  0  0  0  0  0  0
    5.0304    2.9221   -1.0192 C   0  0  3  0  0  0  0  0  0  0  0  0
    3.6565    2.2539   -1.2362 C   0  0  0  0  0  0  0  0  0  0  0  0
    4.9569    4.4711   -0.9936 C   0  0  0  0  0  0  0  0  0  0  0  0
    2.8667    2.7650   -2.4553 C   0  0  0  0  0  0  0  0  0  0  0  0
    4.0044    5.0782    0.0329 C   0  0  0  0  0  0  0  0  0  0  0  0
    3.6012    2.6881   -3.7976 C   0  0  0  0  0  0  0  0  0  0  0  0
    3.8887    1.2650   -4.2455 C   0  0  0  0  0  0  0  0  0  0  0  0
    8.6304   -3.3669    1.0037 H   0  0  0  0  0  0  0  0  0  0  0  0
    5.3008   -2.4356    3.5926 H   0  0  0  0  0  0  0  0  0  0  0  0
    5.7751   -0.9064    1.9045 H   0  0  0  0  0  0  0  0  0  0  0  0
    9.2507   -5.2038    2.4689 H   0  0  0  0  0  0  0  0  0  0  0  0
    5.9465   -4.2830    5.0617 H   0  0  0  0  0  0  0  0  0  0  0  0
    7.8660   -1.5753   -0.2499 H   0  0  0  0  0  0  0  0  0  0  0  0
    9.0133   -7.2045    3.6940 H   0  0  0  0  0  0  0  0  0  0  0  0
    9.9675   -6.0471    4.7030 H   0  0  0  0  0  0  0  0  0  0  0  0
    9.0809   -7.3819    5.4494 H   0  0  0  0  0  0  0  0  0  0  0  0
    5.2544    2.7414    1.1382 H   0  0  0  0  0  0  0  0  0  0  0  0
    6.7809    2.7799    0.2749 H   0  0  0  0  0  0  0  0  0  0  0  0
    5.6573    2.6479   -1.8769 H   0  0  0  0  0  0  0  0  0  0  0  0
    3.7909    1.1717   -1.3330 H   0  0  0  0  0  0  0  0  0  0  0  0
    3.0357    2.3945   -0.3412 H   0  0  0  0  0  0  0  0  0  0  0  0
    5.9603    4.8796   -0.8197 H   0  0  0  0  0  0  0  0  0  0  0  0
    4.6612    4.8381   -1.9836 H   0  0  0  0  0  0  0  0  0  0  0  0
    1.9305    2.1973   -2.5253 H   0  0  0  0  0  0  0  0  0  0  0  0
    2.5673    3.8055   -2.2867 H   0  0  0  0  0  0  0  0  0  0  0  0
    4.3392    4.8860    1.0557 H   0  0  0  0  0  0  0  0  0  0  0  0
    3.9578    6.1648   -0.1015 H   0  0  0  0  0  0  0  0  0  0  0  0
    2.9848    4.6987   -0.0744 H   0  0  0  0  0  0  0  0  0  0  0  0
    2.9836    3.1758   -4.5617 H   0  0  0  0  0  0  0  0  0  0  0  0
    4.5377    3.2540   -3.7607 H   0  0  0  0  0  0  0  0  0  0  0  0
    2.9563    0.7287   -4.4482 H   0  0  0  0  0  0  0  0  0  0  0  0
    4.4789    1.2756   -5.1673 H   0  0  0  0  0  0  0  0  0  0  0  0
    4.4542    0.7071   -3.4948 H   0  0  0  0  0  0  0  0  0  0  0  0
  1  2  2  0  0  0  0
  1  3  1  0  0  0  0
  1  4  1  0  0  0  0
  2  5  1  0  0  0  0
  2 22  1  0  0  0  0
  3  6  2  0  0  0  0
  3 23  1  0  0  0  0
  4  7  2  3  0  0  0
  4 24  1  0  0  0  0
  5  8  2  0  0  0  0
  5 25  1  0  0  0  0
  6  8  1  0  0  0  0
  6 26  1  0  0  0  0
  7  9  1  0  0  0  0
  7 27  1  0  0  0  0
  8 10  1  0  0  0  0
  9 11  1  0  0  0  0
  9 12  2  0  0  0  0
 10 13  1  0  0  0  0
 11 14  1  0  0  0  0
 13 28  1  0  0  0  0
 13 29  1  0  0  0  0
 13 30  1  0  0  0  0
 14 15  1  0  0  0  0
 14 31  1  0  0  0  0
 14 32  1  0  0  0  0
 15 16  1  0  0  0  0
 15 17  1  0  0  0  0
 15 33  1  0  0  0  0
 16 18  1  0  0  0  0
 16 34  1  0  0  0  0
 16 35  1  0  0  0  0
 17 19  1  0  0  0  0
 17 36  1  0  0  0  0
 17 37  1  0  0  0  0
 18 20  1  0  0  0  0
 18 38  1  0  0  0  0
 18 39  1  0  0  0  0
 19 40  1  0  0  0  0
 19 41  1  0  0  0  0
 19 42  1  0  0  0  0
 20 21  1  0  0  0  0
 20 43  1  0  0  0  0
 20 44  1  0  0  0  0
 21 45  1  0  0  0  0
 21 46  1  0  0  0  0
 21 47  1  0  0  0  0
M  END
>  <Mol_ID>
2964

>  <Formula>
C18H26O3

>  <MolWeight>
290.39724

>  <Cat>
S5320

>  <Name>
Octinoxate

>  <Synonyms>
Octyl methoxycinnamate, ethylhexyl methoxycinnamate

>  <Target>
Others

>  <Form>
free base

>  <CAS>
5466-77-3

>  <URL>
http://selleckchem.com/products/octinoxate.html

$$$$
