S5338 L(-)-Sorbose.cdx
 OpenBabel08302521383D

 24 23  0  0  0  0  0  0  0  0999 V2000
    0.8791    0.0155   -0.0452 C   0  0  1  0  0  0  0  0  0  0  0  0
    0.4663    1.1244   -1.0337 C   0  0  1  0  0  0  0  0  0  0  0  0
    0.3825    0.3080    1.3915 C   0  0  2  0  0  0  0  0  0  0  0  0
    0.2815   -1.2253   -0.4718 O   0  0  0  0  0  0  0  0  0  0  0  0
    1.0829    0.9288   -2.4265 C   0  0  0  0  0  0  0  0  0  0  0  0
   -0.9596    1.1855   -1.1129 O   0  0  0  0  0  0  0  0  0  0  0  0
    0.9563   -0.6850    2.4109 C   0  0  0  0  0  0  0  0  0  0  0  0
   -1.0493    0.1914    1.4245 O   0  0  0  0  0  0  0  0  0  0  0  0
    0.7678    1.9906   -3.4695 C   0  0  0  0  0  0  0  0  0  0  0  0
    1.8481    0.0044   -2.7123 O   0  0  0  0  0  0  0  0  0  0  0  0
    2.3753   -0.6137    2.4591 O   0  0  0  0  0  0  0  0  0  0  0  0
    0.8665    1.4645   -4.7857 O   0  0  0  0  0  0  0  0  0  0  0  0
    1.9683   -0.0985   -0.0613 H   0  0  0  0  0  0  0  0  0  0  0  0
    0.8264    2.0922   -0.6665 H   0  0  0  0  0  0  0  0  0  0  0  0
    0.6611    1.3259    1.6885 H   0  0  0  0  0  0  0  0  0  0  0  0
   -0.5267   -1.3521    0.0698 H   0  0  0  0  0  0  0  0  0  0  0  0
   -1.2422    0.2997   -1.4234 H   0  0  0  0  0  0  0  0  0  0  0  0
    0.5679   -0.4543    3.4090 H   0  0  0  0  0  0  0  0  0  0  0  0
    0.6483   -1.7148    2.1941 H   0  0  0  0  0  0  0  0  0  0  0  0
   -1.4038    0.8886    0.8339 H   0  0  0  0  0  0  0  0  0  0  0  0
   -0.2425    2.3807   -3.3327 H   0  0  0  0  0  0  0  0  0  0  0  0
    1.4924    2.8018   -3.3606 H   0  0  0  0  0  0  0  0  0  0  0  0
    2.7171   -1.2817    1.8370 H   0  0  0  0  0  0  0  0  0  0  0  0
    1.5575    0.7720   -4.7555 H   0  0  0  0  0  0  0  0  0  0  0  0
  1  4  1  0  0  0  0
  1 13  1  1  0  0  0
  1  3  1  0  0  0  0
  1  2  1  0  0  0  0
  2  5  1  0  0  0  0
  2  6  1  0  0  0  0
  2 14  1  1  0  0  0
  3 15  1  1  0  0  0
  3  8  1  0  0  0  0
  3  7  1  0  0  0  0
  4 16  1  0  0  0  0
  5  9  1  0  0  0  0
  5 10  2  0  0  0  0
  6 17  1  0  0  0  0
  7 11  1  0  0  0  0
  7 18  1  0  0  0  0
  7 19  1  0  0  0  0
  8 20  1  0  0  0  0
  9 12  1  0  0  0  0
  9 21  1  0  0  0  0
  9 22  1  0  0  0  0
 11 23  1  0  0  0  0
 12 24  1  0  0  0  0
M  END
>  <Mol_ID>
7822

>  <Formula>
C6H12O6

>  <MolWeight>
180.15588

>  <Cat>
S5338

>  <Name>
L(-)-Sorbose

>  <Synonyms>
L(-)-Sorbopyranose

>  <Target>
Others

>  <Form>
free base

>  <CAS>
87-79-6

>  <URL>
http://selleckchem.com/products/l-sorbose.html

$$$$
