S5361 Bendazac.cdx
 OpenBabel08302520013D

 35 37  0  0  0  0  0  0  0  0999 V2000
    0.1171   -0.6959   -0.1673 C   0  0  0  0  0  0  0  0  0  0  0  0
    0.1056    0.6632    0.1468 C   0  0  0  0  0  0  0  0  0  0  0  0
    1.4450   -1.0619   -0.1379 N   0  0  0  0  0  0  0  0  0  0  0  0
   -1.0586   -1.4210   -0.4067 C   0  0  0  0  0  0  0  0  0  0  0  0
    1.4691    1.0142    0.2089 C   0  0  0  0  0  0  0  0  0  0  0  0
   -1.1249    1.3218    0.3109 C   0  0  0  0  0  0  0  0  0  0  0  0
    2.2932   -0.0063   -0.0287 N   0  0  0  0  0  0  0  0  0  0  0  0
    1.9772   -2.4187   -0.0400 C   0  0  0  0  0  0  0  0  0  0  0  0
   -2.2726   -0.7411   -0.2647 C   0  0  0  0  0  0  0  0  0  0  0  0
    1.9895    2.2509    0.3454 O   0  0  0  0  0  0  0  0  0  0  0  0
   -2.3089    0.6009    0.1140 C   0  0  0  0  0  0  0  0  0  0  0  0
    2.3518   -2.9936   -1.3791 C   0  0  0  0  0  0  0  0  0  0  0  0
    3.3132    2.2818    0.8670 C   0  0  0  0  0  0  0  0  0  0  0  0
    3.3228   -2.3773   -2.1825 C   0  0  0  0  0  0  0  0  0  0  0  0
    1.7617   -4.1850   -1.8245 C   0  0  0  0  0  0  0  0  0  0  0  0
    4.4772    2.1843   -0.1240 C   0  0  0  0  0  0  0  0  0  0  0  0
    3.6615   -2.9154   -3.4232 C   0  0  0  0  0  0  0  0  0  0  0  0
    2.1077   -4.7235   -3.0641 C   0  0  0  0  0  0  0  0  0  0  0  0
    4.2912    1.3245   -1.1507 O   0  0  0  0  0  0  0  0  0  0  0  0
    5.5300    2.7937    0.0187 O   0  0  0  0  0  0  0  0  0  0  0  0
    3.0509   -4.0858   -3.8647 C   0  0  0  0  0  0  0  0  0  0  0  0
   -1.0395   -2.4647   -0.7046 H   0  0  0  0  0  0  0  0  0  0  0  0
   -1.1578    2.3701    0.5952 H   0  0  0  0  0  0  0  0  0  0  0  0
    2.8518   -2.3878    0.6208 H   0  0  0  0  0  0  0  0  0  0  0  0
    1.2174   -3.0280    0.4634 H   0  0  0  0  0  0  0  0  0  0  0  0
   -3.2061   -1.2701   -0.4476 H   0  0  0  0  0  0  0  0  0  0  0  0
   -3.2672    1.0976    0.2475 H   0  0  0  0  0  0  0  0  0  0  0  0
    3.4118    3.2668    1.3386 H   0  0  0  0  0  0  0  0  0  0  0  0
    3.4588    1.5428    1.6656 H   0  0  0  0  0  0  0  0  0  0  0  0
    3.8284   -1.4722   -1.8506 H   0  0  0  0  0  0  0  0  0  0  0  0
    1.0325   -4.7084   -1.2111 H   0  0  0  0  0  0  0  0  0  0  0  0
    4.4031   -2.4177   -4.0426 H   0  0  0  0  0  0  0  0  0  0  0  0
    1.6442   -5.6444   -3.4037 H   0  0  0  0  0  0  0  0  0  0  0  0
    3.4540    0.8165   -1.0201 H   0  0  0  0  0  0  0  0  0  0  0  0
    3.3144   -4.5026   -4.8334 H   0  0  0  0  0  0  0  0  0  0  0  0
  1  2  1  0  0  0  0
  1  3  1  0  0  0  0
  1  4  2  0  0  0  0
  2  5  1  0  0  0  0
  2  6  2  0  0  0  0
  3  7  1  0  0  0  0
  3  8  1  0  0  0  0
  4  9  1  0  0  0  0
  4 22  1  0  0  0  0
  5 10  1  0  0  0  0
  5  7  2  0  0  0  0
  6 11  1  0  0  0  0
  6 23  1  0  0  0  0
  8 12  1  0  0  0  0
  8 24  1  0  0  0  0
  8 25  1  0  0  0  0
  9 11  2  0  0  0  0
  9 26  1  0  0  0  0
 10 13  1  0  0  0  0
 11 27  1  0  0  0  0
 12 14  2  0  0  0  0
 12 15  1  0  0  0  0
 13 16  1  0  0  0  0
 13 28  1  0  0  0  0
 13 29  1  0  0  0  0
 14 17  1  0  0  0  0
 14 30  1  0  0  0  0
 15 18  2  0  0  0  0
 15 31  1  0  0  0  0
 16 19  1  0  0  0  0
 16 20  2  0  0  0  0
 17 21  2  0  0  0  0
 17 32  1  0  0  0  0
 18 21  1  0  0  0  0
 18 33  1  0  0  0  0
 19 34  1  0  0  0  0
 21 35  1  0  0  0  0
M  END
>  <Mol_ID>
3108

>  <Formula>
C16H14N2O3

>  <MolWeight>
282.29396

>  <Cat>
S5361

>  <Name>
Bendazac

>  <Synonyms>
bendazolic acid, AF-983

>  <Target>
Immunology & Inflammation related

>  <Form>
free base

>  <CAS>
20187-55-7

>  <URL>
http://selleckchem.com/products/bendazac.html

$$$$
