S5371 Ajmaline.cdx
 OpenBabel08302520143D

 50 55  0  0  0  0  0  0  0  0999 V2000
   -0.4822    0.5193   -0.1460 C   0  0  1  0  0  0  0  0  0  0  0  0
   -1.7981   -0.6359   -0.0681 C   0  0  2  0  0  0  0  0  0  0  0  0
    0.8352    0.0562    0.0246 C   0  0  0  0  0  0  0  0  0  0  0  0
   -0.6451    1.0135   -1.5306 C   0  0  1  0  0  0  0  0  0  0  0  0
   -0.4972    1.3372    1.1568 C   0  0  0  0  0  0  0  0  0  0  0  0
   -3.4171    0.5475    0.3392 C   0  0  1  0  0  0  0  0  0  0  0  0
   -0.7075   -1.7004    0.6787 N   0  0  0  0  0  0  0  0  0  0  0  0
    0.7508   -1.2314    0.4207 C   0  0  0  0  0  0  0  0  0  0  0  0
    1.9205    0.9733   -0.0041 C   0  0  0  0  0  0  0  0  0  0  0  0
   -1.9611    1.4014   -1.0709 C   0  0  3  0  0  0  0  0  0  0  0  0
    0.1775    1.9959   -2.0608 O   0  0  0  0  0  0  0  0  0  0  0  0
   -1.8856    1.3541    0.8644 C   0  0  3  0  0  0  0  0  0  0  0  0
   -3.0689    1.9017    1.3188 N   0  0  3  0  0  0  0  0  0  0  0  0
   -4.0269    1.7170   -0.8050 C   0  0  0  0  0  0  0  0  0  0  0  0
   -0.6525   -3.0556    0.0934 C   0  0  0  0  0  0  0  0  0  0  0  0
    2.0300   -1.7461    0.5220 C   0  0  0  0  0  0  0  0  0  0  0  0
    3.1429    0.5071    0.2165 C   0  0  0  0  0  0  0  0  0  0  0  0
   -2.7845    2.5700   -1.3470 C   0  0  3  0  0  0  0  0  0  0  0  0
   -2.5470    3.3359    0.9697 C   0  0  3  0  0  0  0  0  0  0  0  0
    3.2253   -0.8861    0.3896 C   0  0  0  0  0  0  0  0  0  0  0  0
   -1.9945    3.5317   -0.4546 C   0  0  3  0  0  0  0  0  0  0  0  0
   -3.3812    4.4060    1.3279 O   0  0  0  0  0  0  0  0  0  0  0  0
   -1.2645    4.7097   -1.1356 C   0  0  0  0  0  0  0  0  0  0  0  0
   -0.1260    5.3049   -0.2869 C   0  0  0  0  0  0  0  0  0  0  0  0
   -2.0395   -1.1473   -1.0109 H   0  0  0  0  0  0  0  0  0  0  0  0
   -0.6824    0.1731   -2.2464 H   0  0  0  0  0  0  0  0  0  0  0  0
    0.0080    2.2860    1.2611 H   0  0  0  0  0  0  0  0  0  0  0  0
   -0.3052    0.7486    2.0793 H   0  0  0  0  0  0  0  0  0  0  0  0
   -4.2276   -0.0416    0.7882 H   0  0  0  0  0  0  0  0  0  0  0  0
    1.7047    2.0488   -0.1258 H   0  0  0  0  0  0  0  0  0  0  0  0
   -2.5361    0.6044   -1.6070 H   0  0  0  0  0  0  0  0  0  0  0  0
    0.9634    1.5072   -2.3756 H   0  0  0  0  0  0  0  0  0  0  0  0
   -2.0220    0.4499    1.5525 H   0  0  0  0  0  0  0  0  0  0  0  0
   -4.5330    1.1916   -1.6276 H   0  0  0  0  0  0  0  0  0  0  0  0
   -4.7753    2.3855   -0.3541 H   0  0  0  0  0  0  0  0  0  0  0  0
   -0.2963   -3.0296   -0.9480 H   0  0  0  0  0  0  0  0  0  0  0  0
    0.0387   -3.6936    0.6639 H   0  0  0  0  0  0  0  0  0  0  0  0
   -1.6272   -3.5434    0.1066 H   0  0  0  0  0  0  0  0  0  0  0  0
    2.2297   -2.8034    0.6486 H   0  0  0  0  0  0  0  0  0  0  0  0
    3.9729    1.2112    0.2307 H   0  0  0  0  0  0  0  0  0  0  0  0
   -2.8481    2.8436   -2.4024 H   0  0  0  0  0  0  0  0  0  0  0  0
   -1.7021    3.4995    1.6622 H   0  0  0  0  0  0  0  0  0  0  0  0
    4.2179   -1.2994    0.4230 H   0  0  0  0  0  0  0  0  0  0  0  0
   -1.0146    3.0788   -0.3020 H   0  0  0  0  0  0  0  0  0  0  0  0
   -4.2864    4.1086    1.1886 H   0  0  0  0  0  0  0  0  0  0  0  0
   -0.7436    4.2972   -2.0206 H   0  0  0  0  0  0  0  0  0  0  0  0
   -1.9311    5.4745   -1.5246 H   0  0  0  0  0  0  0  0  0  0  0  0
    0.5369    4.5316    0.1294 H   0  0  0  0  0  0  0  0  0  0  0  0
    0.5171    5.9486   -0.9002 H   0  0  0  0  0  0  0  0  0  0  0  0
   -0.5238    5.8916    0.5410 H   0  0  0  0  0  0  0  0  0  0  0  0
  1  2  1  0  0  0  0
  1  3  1  1  0  0  0
  1  4  1  0  0  0  0
  1  5  1  0  0  0  0
  2  6  1  0  0  0  0
  2  7  1  0  0  0  0
  2 25  1  6  0  0  0
  3  8  2  0  0  0  0
  3  9  1  0  0  0  0
  4 10  1  0  0  0  0
  4 26  1  6  0  0  0
  4 11  1  0  0  0  0
  5 27  1  0  0  0  0
  5 28  1  0  0  0  0
  6 13  1  0  0  0  0
  6 14  1  0  0  0  0
  6 29  1  1  0  0  0
  7 15  1  0  0  0  0
  7  8  1  0  0  0  0
  8 16  1  0  0  0  0
  9 17  2  0  0  0  0
  9 30  1  0  0  0  0
 10 18  1  0  0  0  0
 10 12  1  0  0  0  0
 10 31  1  0  0  0  0
 11 32  1  0  0  0  0
 12  5  1  0  0  0  0
 12 13  1  0  0  0  0
 12 33  1  0  0  0  0
 13 19  1  0  0  0  0
 14 34  1  0  0  0  0
 14 35  1  0  0  0  0
 15 36  1  0  0  0  0
 15 37  1  0  0  0  0
 15 38  1  0  0  0  0
 16 20  2  0  0  0  0
 16 39  1  0  0  0  0
 17 20  1  0  0  0  0
 17 40  1  0  0  0  0
 18 14  1  0  0  0  0
 18 21  1  0  0  0  0
 18 41  1  0  0  0  0
 19 22  1  0  0  0  0
 19 21  1  0  0  0  0
 19 42  1  0  0  0  0
 20 43  1  0  0  0  0
 21 23  1  0  0  0  0
 21 44  1  0  0  0  0
 22 45  1  0  0  0  0
 23 24  1  0  0  0  0
 23 46  1  0  0  0  0
 23 47  1  0  0  0  0
 24 48  1  0  0  0  0
 24 49  1  0  0  0  0
 24 50  1  0  0  0  0
M  END
>  <Mol_ID>
3202

>  <Formula>
C20H26N2O2

>  <MolWeight>
326.43264

>  <Cat>
S5371

>  <Name>
Ajmaline

>  <Synonyms>
Cardiorythmine, Tachmalin

>  <Target>
Potassium Channel

>  <Form>
free base

>  <CAS>
4360-12-7

>  <URL>
https://www.selleckchem.com/products/ajmaline.html

$$$$
