S5374 5'-Cytidylic acid.cdx
 OpenBabel08302521383D

 35 36  0  0  0  0  0  0  0  0999 V2000
    0.4792    1.5485    0.3020 C   0  0  2  0  0  0  0  0  0  0  0  0
    0.9305    2.9078    0.0110 N   0  0  0  0  0  0  0  0  0  0  0  0
    1.6186    0.6772    0.1752 O   0  0  0  0  0  0  0  0  0  0  0  0
   -0.6755    0.9509   -0.5177 C   0  0  1  0  0  0  0  0  0  0  0  0
    1.3181    3.2393   -1.2870 C   0  0  0  0  0  0  0  0  0  0  0  0
    1.1975    3.7520    1.0703 C   0  0  0  0  0  0  0  0  0  0  0  0
    1.2286   -0.5236   -0.5209 C   0  0  1  0  0  0  0  0  0  0  0  0
   -0.2971   -0.5275   -0.5407 C   0  0  1  0  0  0  0  0  0  0  0  0
   -1.9479    1.1387    0.1183 O   0  0  0  0  0  0  0  0  0  0  0  0
    2.0250    4.4012   -1.4868 N   0  0  0  0  0  0  0  0  0  0  0  0
    1.0659    2.5098   -2.2437 O   0  0  0  0  0  0  0  0  0  0  0  0
    1.8643    4.8937    0.8947 C   0  0  0  0  0  0  0  0  0  0  0  0
    1.8657   -0.6014   -1.9115 C   0  0  0  0  0  0  0  0  0  0  0  0
   -0.8319   -1.1346    0.6576 O   0  0  0  0  0  0  0  0  0  0  0  0
    2.3190    5.1603   -0.4801 C   0  0  0  0  0  0  0  0  0  0  0  0
    3.2791   -0.5534   -1.7677 O   0  0  0  0  0  0  0  0  0  0  0  0
    3.0985    6.2528   -0.7363 N   0  0  0  0  0  0  0  0  0  0  0  0
    4.1750   -1.1405   -2.9468 P   0  0  0  0  0  0  0  0  0  0  0  0
    5.6748   -1.0835   -2.4116 O   0  0  0  0  0  0  0  0  0  0  0  0
    3.8478   -2.7042   -2.9421 O   0  0  0  0  0  0  0  0  0  0  0  0
    3.9995   -0.5427   -4.2981 O   0  0  0  0  0  0  0  0  0  0  0  0
    0.1876    1.5090    1.3600 H   0  0  0  0  0  0  0  0  0  0  0  0
   -0.7526    1.3466   -1.5305 H   0  0  0  0  0  0  0  0  0  0  0  0
    0.8679    3.4498    2.0551 H   0  0  0  0  0  0  0  0  0  0  0  0
    1.6242   -1.3513    0.0781 H   0  0  0  0  0  0  0  0  0  0  0  0
   -0.7319   -1.0659   -1.3872 H   0  0  0  0  0  0  0  0  0  0  0  0
   -2.1236    0.3046    0.6049 H   0  0  0  0  0  0  0  0  0  0  0  0
    2.1157    5.5672    1.6999 H   0  0  0  0  0  0  0  0  0  0  0  0
    1.5794   -1.5493   -2.3808 H   0  0  0  0  0  0  0  0  0  0  0  0
    1.5534    0.2088   -2.5705 H   0  0  0  0  0  0  0  0  0  0  0  0
   -0.1164   -1.2088    1.3173 H   0  0  0  0  0  0  0  0  0  0  0  0
    2.9859    7.0701   -0.1517 H   0  0  0  0  0  0  0  0  0  0  0  0
    3.1740    6.4541   -1.7284 H   0  0  0  0  0  0  0  0  0  0  0  0
    6.0501   -0.1914   -2.5190 H   0  0  0  0  0  0  0  0  0  0  0  0
    3.7077   -3.0112   -3.8561 H   0  0  0  0  0  0  0  0  0  0  0  0
  1  3  1  0  0  0  0
  1  4  1  0  0  0  0
  1 22  1  1  0  0  0
  1  2  1  0  0  0  0
  2  5  1  0  0  0  0
  2  6  1  0  0  0  0
  3  7  1  0  0  0  0
  4  8  1  0  0  0  0
  4  9  1  0  0  0  0
  4 23  1  6  0  0  0
  5 10  1  0  0  0  0
  5 11  2  0  0  0  0
  6 12  2  0  0  0  0
  6 24  1  0  0  0  0
  7  8  1  0  0  0  0
  7 25  1  1  0  0  0
  7 13  1  0  0  0  0
  8 14  1  0  0  0  0
  8 26  1  6  0  0  0
  9 27  1  0  0  0  0
 10 15  2  0  0  0  0
 12 15  1  0  0  0  0
 12 28  1  0  0  0  0
 13 16  1  0  0  0  0
 13 29  1  0  0  0  0
 13 30  1  0  0  0  0
 14 31  1  0  0  0  0
 15 17  1  0  0  0  0
 16 18  1  0  0  0  0
 17 32  1  0  0  0  0
 17 33  1  0  0  0  0
 18 19  1  0  0  0  0
 18 20  1  0  0  0  0
 18 21  2  0  0  0  0
 19 34  1  0  0  0  0
 20 35  1  0  0  0  0
M  END
>  <Mol_ID>
7827

>  <Formula>
C9H14N3O8P

>  <MolWeight>
323.196521

>  <Cat>
S5374

>  <Name>
5'-Cytidylic acid

>  <Synonyms>
Cytidine monophosphate, Cytidine 5'-phosphate

>  <Target>
DNA/RNA Synthesis

>  <Form>
free base

>  <CAS>
63-37-6

>  <URL>
http://selleckchem.com/products/5-cytidylic-acid.html

$$$$
