S5387 D-Tagatose.cdx
 OpenBabel08302520303D

 24 23  0  0  0  0  0  0  0  0999 V2000
    1.0553    0.0820   -0.0169 C   0  0  2  0  0  0  0  0  0  0  0  0
    0.5208    1.3193   -0.7558 C   0  0  1  0  0  0  0  0  0  0  0  0
    0.5496   -1.2227   -0.6676 C   0  0  1  0  0  0  0  0  0  0  0  0
    0.6216    0.1063    1.3540 O   0  0  0  0  0  0  0  0  0  0  0  0
    1.0402    2.5930   -0.0884 C   0  0  0  0  0  0  0  0  0  0  0  0
    0.9326    1.2811   -2.1232 O   0  0  0  0  0  0  0  0  0  0  0  0
    1.1605   -2.4780   -0.0267 C   0  0  0  0  0  0  0  0  0  0  0  0
   -0.8793   -1.2602   -0.4811 O   0  0  0  0  0  0  0  0  0  0  0  0
    0.2450    3.1209    1.1077 C   0  0  0  0  0  0  0  0  0  0  0  0
    2.0741    3.1439   -0.4782 O   0  0  0  0  0  0  0  0  0  0  0  0
    0.6960   -2.6164    1.3171 O   0  0  0  0  0  0  0  0  0  0  0  0
    0.4562    4.5044    1.3310 O   0  0  0  0  0  0  0  0  0  0  0  0
    2.1520    0.0914   -0.0253 H   0  0  0  0  0  0  0  0  0  0  0  0
   -0.5734    1.3556   -0.7388 H   0  0  0  0  0  0  0  0  0  0  0  0
    0.7647   -1.2324   -1.7417 H   0  0  0  0  0  0  0  0  0  0  0  0
   -0.3406   -0.0808    1.3264 H   0  0  0  0  0  0  0  0  0  0  0  0
    1.8577    1.5990   -2.1532 H   0  0  0  0  0  0  0  0  0  0  0  0
    0.8234   -3.3699   -0.5650 H   0  0  0  0  0  0  0  0  0  0  0  0
    2.2542   -2.4578   -0.0344 H   0  0  0  0  0  0  0  0  0  0  0  0
   -1.0607   -2.0115    0.1209 H   0  0  0  0  0  0  0  0  0  0  0  0
   -0.8209    2.9714    0.9218 H   0  0  0  0  0  0  0  0  0  0  0  0
    0.5378    2.5766    2.0071 H   0  0  0  0  0  0  0  0  0  0  0  0
    0.9916   -1.8170    1.8007 H   0  0  0  0  0  0  0  0  0  0  0  0
    1.4153    4.6577    1.2485 H   0  0  0  0  0  0  0  0  0  0  0  0
  1  2  1  0  0  0  0
  1  3  1  0  0  0  0
  1  4  1  0  0  0  0
  1 13  1  6  0  0  0
  2  5  1  0  0  0  0
  2  6  1  0  0  0  0
  2 14  1  1  0  0  0
  3  7  1  0  0  0  0
  3  8  1  0  0  0  0
  3 15  1  6  0  0  0
  4 16  1  0  0  0  0
  5  9  1  0  0  0  0
  5 10  2  0  0  0  0
  6 17  1  0  0  0  0
  7 11  1  0  0  0  0
  7 18  1  0  0  0  0
  7 19  1  0  0  0  0
  8 20  1  0  0  0  0
  9 12  1  0  0  0  0
  9 21  1  0  0  0  0
  9 22  1  0  0  0  0
 11 23  1  0  0  0  0
 12 24  1  0  0  0  0
M  END
>  <Mol_ID>
3248

>  <Formula>
C6H12O6

>  <MolWeight>
180.15588

>  <Cat>
S5387

>  <Name>
D-Tagatose

>  <Target>
Others

>  <Form>
free base

>  <CAS>
87-81-0

>  <URL>
https://www.selleckchem.com/products/d-tagatose.html

$$$$
