S5396 4'-Hydroxypropiophenone.cdx
 OpenBabel08302520293D

 21 21  0  0  0  0  0  0  0  0999 V2000
   -1.8836    0.0627   -0.0050 C   0  0  0  0  0  0  0  0  0  0  0  0
   -1.2191   -1.1713   -0.0243 C   0  0  0  0  0  0  0  0  0  0  0  0
   -1.1459    1.2510    0.0228 C   0  0  0  0  0  0  0  0  0  0  0  0
   -3.3713    0.0509   -0.0320 C   0  0  0  0  0  0  0  0  0  0  0  0
    0.1757   -1.2233   -0.0024 C   0  0  0  0  0  0  0  0  0  0  0  0
    0.2512    1.1963    0.0377 C   0  0  0  0  0  0  0  0  0  0  0  0
   -4.1261    1.2012    0.6062 C   0  0  0  0  0  0  0  0  0  0  0  0
   -3.9445   -0.8958   -0.5669 O   0  0  0  0  0  0  0  0  0  0  0  0
    0.8982   -0.0356    0.0280 C   0  0  0  0  0  0  0  0  0  0  0  0
   -5.4887    0.7439    1.1070 C   0  0  0  0  0  0  0  0  0  0  0  0
    2.2616   -0.0381    0.0426 O   0  0  0  0  0  0  0  0  0  0  0  0
   -1.7904   -2.0979   -0.0531 H   0  0  0  0  0  0  0  0  0  0  0  0
   -1.6322    2.2220    0.0120 H   0  0  0  0  0  0  0  0  0  0  0  0
    0.6700   -2.1890   -0.0103 H   0  0  0  0  0  0  0  0  0  0  0  0
    0.8363    2.1124    0.0494 H   0  0  0  0  0  0  0  0  0  0  0  0
   -3.5591    1.5951    1.4555 H   0  0  0  0  0  0  0  0  0  0  0  0
   -4.2483    1.9933   -0.1390 H   0  0  0  0  0  0  0  0  0  0  0  0
   -5.3803   -0.0409    1.8638 H   0  0  0  0  0  0  0  0  0  0  0  0
   -6.0354    1.5793    1.5549 H   0  0  0  0  0  0  0  0  0  0  0  0
   -6.0976    0.3366    0.2925 H   0  0  0  0  0  0  0  0  0  0  0  0
    2.5735   -0.9578    0.0092 H   0  0  0  0  0  0  0  0  0  0  0  0
  1  2  2  0  0  0  0
  1  3  1  0  0  0  0
  1  4  1  0  0  0  0
  2  5  1  0  0  0  0
  2 12  1  0  0  0  0
  3  6  2  0  0  0  0
  3 13  1  0  0  0  0
  4  7  1  0  0  0  0
  4  8  2  0  0  0  0
  5  9  2  0  0  0  0
  5 14  1  0  0  0  0
  6  9  1  0  0  0  0
  6 15  1  0  0  0  0
  7 10  1  0  0  0  0
  7 16  1  0  0  0  0
  7 17  1  0  0  0  0
  9 11  1  0  0  0  0
 10 18  1  0  0  0  0
 10 19  1  0  0  0  0
 10 20  1  0  0  0  0
 11 21  1  0  0  0  0
M  END
>  <Mol_ID>
3236

>  <Formula>
C9H10O2

>  <MolWeight>
150.1745

>  <Cat>
S5396

>  <Name>
4'-Hydroxypropiophenone

>  <Synonyms>
Paroxypropione, p-hydroxypropiophenone

>  <Target>
Others

>  <Form>
free base

>  <CAS>
70-70-2

>  <URL>
https://www.selleckchem.com/products/hydroxypropiophenone.html

$$$$
