S5418 Parecoxib Sodium.cdx
 OpenBabel08302520143D

 44 46  0  0  0  0  0  0  0  0999 V2000
   -6.0313   -1.7704    3.5906 C   0  0  0  0  0  0  0  0  0  0  0  0
   -5.3233   -2.0126    2.4098 C   0  0  0  0  0  0  0  0  0  0  0  0
   -4.1336   -2.7558    2.4329 C   0  0  0  0  0  0  0  0  0  0  0  0
   -3.7261   -3.3305    3.6452 C   0  0  0  0  0  0  0  0  0  0  0  0
   -4.4144   -3.0606    4.8293 C   0  0  0  0  0  0  0  0  0  0  0  0
   -5.5580   -2.2674    4.8035 C   0  0  0  0  0  0  0  0  0  0  0  0
   -3.2847   -2.8282    1.2384 C   0  0  0  0  0  0  0  0  0  0  0  0
   -1.8482   -2.7772    1.1494 C   0  0  0  0  0  0  0  0  0  0  0  0
   -1.5948   -2.7934   -0.2060 C   0  0  0  0  0  0  0  0  0  0  0  0
   -2.7724   -2.8792   -0.8799 O   0  0  0  0  0  0  0  0  0  0  0  0
   -3.8236   -2.8938    0.0093 N   0  0  0  0  0  0  0  0  0  0  0  0
   -0.8249   -2.6752    2.1815 C   0  0  0  0  0  0  0  0  0  0  0  0
    0.2785   -3.5418    2.1818 C   0  0  0  0  0  0  0  0  0  0  0  0
    1.1859   -3.5415    3.2462 C   0  0  0  0  0  0  0  0  0  0  0  0
    0.9777   -2.6879    4.3337 C   0  0  0  0  0  0  0  0  0  0  0  0
   -0.0994   -1.8010    4.3358 C   0  0  0  0  0  0  0  0  0  0  0  0
   -0.9792   -1.7777    3.2489 C   0  0  0  0  0  0  0  0  0  0  0  0
    1.9389   -2.9084    5.8098 S   0  0  0  0  0  0  0  0  0  0  0  0
    1.2280   -2.3504    6.9367 O   0  0  0  0  0  0  0  0  0  0  0  0
    2.3767   -4.2905    5.8299 O   0  0  0  0  0  0  0  0  0  0  0  0
    3.3334   -2.0373    5.5500 N   0  0  0  0  0  0  0  0  0  0  0  0
    3.4080   -0.6439    5.5534 C   0  0  0  0  0  0  0  0  0  0  0  0
    2.4254    0.0774    5.4514 O   0  0  0  0  0  0  0  0  0  0  0  0
    4.8135   -0.0941    5.6417 C   0  0  0  0  0  0  0  0  0  0  0  0
    5.4445   -0.0008    4.2632 C   0  0  0  0  0  0  0  0  0  0  0  0
   -0.3909   -2.7092   -1.0563 C   0  0  0  0  0  0  0  0  0  0  0  0
   -6.9373   -1.1703    3.5663 H   0  0  0  0  0  0  0  0  0  0  0  0
   -5.6882   -1.5853    1.4775 H   0  0  0  0  0  0  0  0  0  0  0  0
   -2.8393   -3.9577    3.6932 H   0  0  0  0  0  0  0  0  0  0  0  0
   -4.0414   -3.4526    5.7722 H   0  0  0  0  0  0  0  0  0  0  0  0
   -6.0805   -2.0383    5.7287 H   0  0  0  0  0  0  0  0  0  0  0  0
    0.4166   -4.2644    1.3799 H   0  0  0  0  0  0  0  0  0  0  0  0
    2.0135   -4.2472    3.2428 H   0  0  0  0  0  0  0  0  0  0  0  0
   -0.2876   -1.1539    5.1911 H   0  0  0  0  0  0  0  0  0  0  0  0
   -1.8276   -1.0948    3.2812 H   0  0  0  0  0  0  0  0  0  0  0  0
    4.1654   -2.6140    5.6022 H   0  0  0  0  0  0  0  0  0  0  0  0
    4.7609    0.8979    6.1021 H   0  0  0  0  0  0  0  0  0  0  0  0
    5.4213   -0.7230    6.3034 H   0  0  0  0  0  0  0  0  0  0  0  0
    4.7312    0.3604    3.5185 H   0  0  0  0  0  0  0  0  0  0  0  0
    6.3013    0.6781    4.2852 H   0  0  0  0  0  0  0  0  0  0  0  0
    5.8024   -0.9837    3.9389 H   0  0  0  0  0  0  0  0  0  0  0  0
   -0.3106   -3.5928   -1.6971 H   0  0  0  0  0  0  0  0  0  0  0  0
   -0.4383   -1.8218   -1.6949 H   0  0  0  0  0  0  0  0  0  0  0  0
    0.5260   -2.6378   -0.4656 H   0  0  0  0  0  0  0  0  0  0  0  0
  1  2  2  0  0  0  0
  1 27  1  0  0  0  0
  2  3  1  0  0  0  0
  2 28  1  0  0  0  0
  3  4  2  0  0  0  0
  3  7  1  0  0  0  0
  4  5  1  0  0  0  0
  4 29  1  0  0  0  0
  5  6  2  0  0  0  0
  5 30  1  0  0  0  0
  6  1  1  0  0  0  0
  6 31  1  0  0  0  0
  7  8  1  0  0  0  0
  8  9  2  0  0  0  0
  8 12  1  0  0  0  0
  9 10  1  0  0  0  0
  9 26  1  0  0  0  0
 10 11  1  0  0  0  0
 11  7  2  0  0  0  0
 12 13  2  0  0  0  0
 13 14  1  0  0  0  0
 13 32  1  0  0  0  0
 14 15  2  0  0  0  0
 14 33  1  0  0  0  0
 15 16  1  0  0  0  0
 15 18  1  0  0  0  0
 16 17  2  0  0  0  0
 16 34  1  0  0  0  0
 17 12  1  0  0  0  0
 17 35  1  0  0  0  0
 18 19  2  0  0  0  0
 18 20  2  0  0  0  0
 18 21  1  0  0  0  0
 21 22  1  0  0  0  0
 21 36  1  0  0  0  0
 22 23  2  0  0  0  0
 22 24  1  0  0  0  0
 24 25  1  0  0  0  0
 24 37  1  0  0  0  0
 24 38  1  0  0  0  0
 25 39  1  0  0  0  0
 25 40  1  0  0  0  0
 25 41  1  0  0  0  0
 26 42  1  0  0  0  0
 26 43  1  0  0  0  0
 26 44  1  0  0  0  0
M  END
>  <Mol_ID>
3207

>  <Formula>
C19H17N2NaO4S

>  <MolWeight>
392.40405

>  <Cat>
S5418

>  <Name>
Parecoxib Sodium

>  <Synonyms>
SC-69124 Sodium

>  <Target>
COX

>  <Form>
free base

>  <CAS>
198470-85-8

>  <URL>
https://www.selleckchem.com/products/parecoxib-sodium.html

$$$$
