S5421 Fluoroquinolonic Acid.cdx
 OpenBabel08302520013D

 28 30  0  0  0  0  0  0  0  0999 V2000
    1.2859    1.3661   -0.0753 N   0  0  0  0  0  0  0  0  0  0  0  0
    0.0153    0.7163   -0.0791 C   0  0  0  0  0  0  0  0  0  0  0  0
    1.4049    2.7899    0.3142 C   0  0  0  0  0  0  0  0  0  0  0  0
    2.4346    0.5916   -0.0625 C   0  0  0  0  0  0  0  0  0  0  0  0
   -0.0446   -0.6952   -0.0802 C   0  0  0  0  0  0  0  0  0  0  0  0
   -1.1974    1.4221   -0.0853 C   0  0  0  0  0  0  0  0  0  0  0  0
    1.1999    3.9097   -0.6742 C   0  0  0  0  0  0  0  0  0  0  0  0
    2.5601    3.6716   -0.0979 C   0  0  0  0  0  0  0  0  0  0  0  0
    2.4951   -0.7473   -0.0967 C   0  0  0  0  0  0  0  0  0  0  0  0
    1.2126   -1.4779   -0.0937 C   0  0  0  0  0  0  0  0  0  0  0  0
   -1.2669   -1.3772   -0.0545 C   0  0  0  0  0  0  0  0  0  0  0  0
   -2.4221    0.7426   -0.0752 C   0  0  0  0  0  0  0  0  0  0  0  0
    3.8171   -1.4063   -0.1113 C   0  0  0  0  0  0  0  0  0  0  0  0
    1.2066   -2.7075   -0.0917 O   0  0  0  0  0  0  0  0  0  0  0  0
   -2.4443   -0.6464   -0.0520 C   0  0  0  0  0  0  0  0  0  0  0  0
    3.7710   -2.7571   -0.1227 O   0  0  0  0  0  0  0  0  0  0  0  0
    4.8744   -0.7938   -0.1205 O   0  0  0  0  0  0  0  0  0  0  0  0
   -3.6194   -1.2883   -0.0308 F   0  0  0  0  0  0  0  0  0  0  0  0
    1.0354    2.9534    1.3258 H   0  0  0  0  0  0  0  0  0  0  0  0
    3.3559    1.1683   -0.0305 H   0  0  0  0  0  0  0  0  0  0  0  0
   -1.2119    2.5081   -0.1112 H   0  0  0  0  0  0  0  0  0  0  0  0
    1.0522    3.6611   -1.7184 H   0  0  0  0  0  0  0  0  0  0  0  0
    0.6675    4.7943   -0.3452 H   0  0  0  0  0  0  0  0  0  0  0  0
    2.9400    4.3673    0.6422 H   0  0  0  0  0  0  0  0  0  0  0  0
    3.3193    3.2974   -0.7740 H   0  0  0  0  0  0  0  0  0  0  0  0
   -1.3098   -2.4624   -0.0351 H   0  0  0  0  0  0  0  0  0  0  0  0
   -3.3597    1.2909   -0.0868 H   0  0  0  0  0  0  0  0  0  0  0  0
    2.8550   -3.1284   -0.1150 H   0  0  0  0  0  0  0  0  0  0  0  0
  1  2  1  0  0  0  0
  1  3  1  0  0  0  0
  1  4  1  0  0  0  0
  2  5  2  0  0  0  0
  2  6  1  0  0  0  0
  3  7  1  0  0  0  0
  3  8  1  0  0  0  0
  3 19  1  0  0  0  0
  4  9  2  0  0  0  0
  4 20  1  0  0  0  0
  5 10  1  0  0  0  0
  5 11  1  0  0  0  0
  6 12  2  0  0  0  0
  6 21  1  0  0  0  0
  7  8  1  0  0  0  0
  7 22  1  0  0  0  0
  7 23  1  0  0  0  0
  8 24  1  0  0  0  0
  8 25  1  0  0  0  0
  9 13  1  0  0  0  0
  9 10  1  0  0  0  0
 10 14  2  0  0  0  0
 11 15  2  0  0  0  0
 11 26  1  0  0  0  0
 12 15  1  0  0  0  0
 12 27  1  0  0  0  0
 13 16  1  0  0  0  0
 13 17  2  0  0  0  0
 15 18  1  0  0  0  0
 16 28  1  0  0  0  0
M  END
>  <Mol_ID>
2934

>  <Formula>
C13H9ClFNO3

>  <MolWeight>
281.6668632

>  <Cat>
S5421

>  <Name>
Fluoroquinolonic Acid

>  <Synonyms>
Ciprofloxacin Impurity A, Q-Acid

>  <Target>
Antibiotics

>  <Form>
free base

>  <CAS>
86393-33-1

>  <URL>
http://selleckchem.com/products/fluoroquinolonic-acid.html

$$$$
