S5427 Alloxazine.cdx
 OpenBabel08302521403D

 22 24  0  0  0  0  0  0  0  0999 V2000
   -1.1183   -0.7259   -0.0005 C   0  0  0  0  0  0  0  0  0  0  0  0
   -1.1538    0.6589   -0.0010 C   0  0  0  0  0  0  0  0  0  0  0  0
    0.0345   -1.4367    0.0002 N   0  0  0  0  0  0  0  0  0  0  0  0
   -2.4086   -1.4495   -0.0012 C   0  0  0  0  0  0  0  0  0  0  0  0
   -0.0249    1.3977   -0.0014 N   0  0  0  0  0  0  0  0  0  0  0  0
   -2.3675    1.3353   -0.0017 N   0  0  0  0  0  0  0  0  0  0  0  0
    1.1667   -0.7120    0.0002 C   0  0  0  0  0  0  0  0  0  0  0  0
   -3.5395   -0.6623   -0.0015 N   0  0  0  0  0  0  0  0  0  0  0  0
   -2.4872   -2.6730   -0.0017 O   0  0  0  0  0  0  0  0  0  0  0  0
    1.1409    0.7103   -0.0006 C   0  0  0  0  0  0  0  0  0  0  0  0
   -3.5725    0.7039   -0.0018 C   0  0  0  0  0  0  0  0  0  0  0  0
    2.3884   -1.3708    0.0004 C   0  0  0  0  0  0  0  0  0  0  0  0
    2.3491    1.3978   -0.0013 C   0  0  0  0  0  0  0  0  0  0  0  0
   -4.6300    1.3238   -0.0023 O   0  0  0  0  0  0  0  0  0  0  0  0
    3.5920   -0.6659   -0.0006 C   0  0  0  0  0  0  0  0  0  0  0  0
    3.5720    0.7233   -0.0015 C   0  0  0  0  0  0  0  0  0  0  0  0
   -2.3514    2.3458   -0.0025 H   0  0  0  0  0  0  0  0  0  0  0  0
   -4.4282   -1.1420   -0.0027 H   0  0  0  0  0  0  0  0  0  0  0  0
    2.4021   -2.4586    0.0012 H   0  0  0  0  0  0  0  0  0  0  0  0
    2.3397    2.4856   -0.0017 H   0  0  0  0  0  0  0  0  0  0  0  0
    4.5371   -1.2034   -0.0005 H   0  0  0  0  0  0  0  0  0  0  0  0
    4.5046    1.2828   -0.0024 H   0  0  0  0  0  0  0  0  0  0  0  0
  1  2  1  0  0  0  0
  1  3  2  0  0  0  0
  1  4  1  0  0  0  0
  2  5  2  0  0  0  0
  2  6  1  0  0  0  0
  3  7  1  0  0  0  0
  4  8  1  0  0  0  0
  4  9  2  0  0  0  0
  5 10  1  0  0  0  0
  6 11  1  0  0  0  0
  6 17  1  0  0  0  0
  7 12  2  0  0  0  0
  7 10  1  0  0  0  0
  8 11  1  0  0  0  0
  8 18  1  0  0  0  0
 10 13  2  0  0  0  0
 11 14  2  0  0  0  0
 12 15  1  0  0  0  0
 12 19  1  0  0  0  0
 13 16  1  0  0  0  0
 13 20  1  0  0  0  0
 15 16  2  0  0  0  0
 15 21  1  0  0  0  0
 16 22  1  0  0  0  0
M  END
>  <Mol_ID>
8261

>  <Formula>
C10H6N4O2

>  <MolWeight>
214.18024

>  <Cat>
S5427

>  <Name>
Alloxazine

>  <Synonyms>
Isoalloxazine

>  <Target>
Adenosine Receptor

>  <Form>
free base

>  <CAS>
490-59-5

>  <URL>
http://selleckchem.com/products/alloxazine.html

$$$$
