S5451 Ferulic acid methylester.cdx
 OpenBabel08302520013D

 27 27  0  0  0  0  0  0  0  0999 V2000
    0.7743   -0.3916   -0.6243 C   0  0  0  0  0  0  0  0  0  0  0  0
    0.0667   -1.1650    0.4210 C   0  0  0  0  0  0  0  0  0  0  0  0
   -1.0431   -0.7305    1.0449 C   0  0  0  0  0  0  0  0  0  0  0  0
   -1.7475   -1.5393    2.0414 C   0  0  0  0  0  0  0  0  0  0  0  0
   -1.4201   -1.4415    3.4032 C   0  0  0  0  0  0  0  0  0  0  0  0
   -2.0980   -2.2217    4.3435 C   0  0  0  0  0  0  0  0  0  0  0  0
   -3.1023   -3.0918    3.9027 C   0  0  0  0  0  0  0  0  0  0  0  0
   -3.4467   -3.1859    2.5608 C   0  0  0  0  0  0  0  0  0  0  0  0
   -2.7664   -2.4064    1.6266 C   0  0  0  0  0  0  0  0  0  0  0  0
    1.7857   -0.8027   -1.1735 O   0  0  0  0  0  0  0  0  0  0  0  0
    0.1507    0.7849   -0.8734 O   0  0  0  0  0  0  0  0  0  0  0  0
   -1.8819   -2.2312    5.6983 O   0  0  0  0  0  0  0  0  0  0  0  0
   -0.8703   -1.3590    6.1887 C   0  0  0  0  0  0  0  0  0  0  0  0
   -3.7734   -3.8828    4.7957 O   0  0  0  0  0  0  0  0  0  0  0  0
    0.7557    1.5889   -1.8851 C   0  0  0  0  0  0  0  0  0  0  0  0
    0.5071   -2.1316    0.6427 H   0  0  0  0  0  0  0  0  0  0  0  0
   -1.4926    0.2309    0.8197 H   0  0  0  0  0  0  0  0  0  0  0  0
   -0.6395   -0.7500    3.7016 H   0  0  0  0  0  0  0  0  0  0  0  0
   -4.2359   -3.8620    2.2469 H   0  0  0  0  0  0  0  0  0  0  0  0
   -3.0383   -2.4787    0.5761 H   0  0  0  0  0  0  0  0  0  0  0  0
    0.1102   -1.6269    5.7818 H   0  0  0  0  0  0  0  0  0  0  0  0
   -1.1152   -0.3126    5.9790 H   0  0  0  0  0  0  0  0  0  0  0  0
   -0.8239   -1.4781    7.2757 H   0  0  0  0  0  0  0  0  0  0  0  0
   -3.3705   -3.6844    5.6633 H   0  0  0  0  0  0  0  0  0  0  0  0
    1.7762    1.8650   -1.6017 H   0  0  0  0  0  0  0  0  0  0  0  0
    0.7442    1.0706   -2.8489 H   0  0  0  0  0  0  0  0  0  0  0  0
    0.1646    2.5042   -1.9792 H   0  0  0  0  0  0  0  0  0  0  0  0
  1  2  1  0  0  0  0
  1 10  2  0  0  0  0
  1 11  1  0  0  0  0
  2  3  2  0  0  0  0
  2 16  1  0  0  0  0
  3  4  1  0  0  0  0
  3 17  1  0  0  0  0
  4  5  2  0  0  0  0
  4  9  1  0  0  0  0
  5  6  1  0  0  0  0
  5 18  1  0  0  0  0
  6  7  2  0  0  0  0
  6 12  1  0  0  0  0
  7  8  1  0  0  0  0
  7 14  1  0  0  0  0
  8  9  2  0  0  0  0
  8 19  1  0  0  0  0
  9 20  1  0  0  0  0
 11 15  1  0  0  0  0
 12 13  1  0  0  0  0
 13 21  1  0  0  0  0
 13 22  1  0  0  0  0
 13 23  1  0  0  0  0
 14 24  1  0  0  0  0
 15 25  1  0  0  0  0
 15 26  1  0  0  0  0
 15 27  1  0  0  0  0
M  END
>  <Mol_ID>
3019

>  <Formula>
C11H12O4

>  <MolWeight>
208.21058

>  <Cat>
S5451

>  <Name>
Ferulic acid methyl ester

>  <Synonyms>
Methyl Ferulate, Methyl 4'-hydroxy-3'-methoxycinnamate

>  <Target>
Immunology & Inflammation related

>  <Form>
free base

>  <CAS>
2309-07-1

>  <URL>
http://selleckchem.com/products/ferulic-acid-methylester.html

$$$$
