S5469 Bavachin.cdx
 OpenBabel08302520013D

 44 46  0  0  0  0  0  0  0  0999 V2000
   -1.3200    1.3223    0.0934 O   0  0  0  0  0  0  0  0  0  0  0  0
   -2.4413    0.5527   -0.3820 C   0  0  1  0  0  0  0  0  0  0  0  0
   -2.5165   -0.7913    0.3304 C   0  0  0  0  0  0  0  0  0  0  0  0
   -1.2697   -1.5448   -0.0109 C   0  0  0  0  0  0  0  0  0  0  0  0
   -3.7454    1.3024   -0.1583 C   0  0  0  0  0  0  0  0  0  0  0  0
   -4.8241    1.0812   -1.0325 C   0  0  0  0  0  0  0  0  0  0  0  0
   -6.0656    1.6753   -0.7984 C   0  0  0  0  0  0  0  0  0  0  0  0
   -6.2370    2.4937    0.3091 C   0  0  0  0  0  0  0  0  0  0  0  0
   -5.1837    2.7370    1.1842 C   0  0  0  0  0  0  0  0  0  0  0  0
   -3.9404    2.1401    0.9507 C   0  0  0  0  0  0  0  0  0  0  0  0
   -0.1277    0.6432    0.0324 C   0  0  0  0  0  0  0  0  0  0  0  0
   -0.0343   -0.7460   -0.0498 C   0  0  0  0  0  0  0  0  0  0  0  0
    1.2099   -1.3825   -0.1034 C   0  0  0  0  0  0  0  0  0  0  0  0
    2.3964   -0.6351   -0.0424 C   0  0  0  0  0  0  0  0  0  0  0  0
    2.2864    0.7627    0.0376 C   0  0  0  0  0  0  0  0  0  0  0  0
    1.0408    1.3966    0.0873 C   0  0  0  0  0  0  0  0  0  0  0  0
   -1.2499   -2.7596   -0.1808 O   0  0  0  0  0  0  0  0  0  0  0  0
    3.3754    1.5846    0.0784 O   0  0  0  0  0  0  0  0  0  0  0  0
    3.7158   -1.3742   -0.0591 C   0  0  0  0  0  0  0  0  0  0  0  0
    4.2478   -1.5548   -1.4547 C   0  0  0  0  0  0  0  0  0  0  0  0
    5.4533   -1.1751   -1.9213 C   0  0  0  0  0  0  0  0  0  0  0  0
    5.8437   -1.4297   -3.3528 C   0  0  0  0  0  0  0  0  0  0  0  0
    6.4975   -0.4993   -1.0778 C   0  0  0  0  0  0  0  0  0  0  0  0
   -7.4715    3.0371    0.5097 O   0  0  0  0  0  0  0  0  0  0  0  0
   -2.3064    0.4211   -1.4659 H   0  0  0  0  0  0  0  0  0  0  0  0
   -2.5547   -0.6791    1.4211 H   0  0  0  0  0  0  0  0  0  0  0  0
   -3.3854   -1.3720    0.0019 H   0  0  0  0  0  0  0  0  0  0  0  0
   -4.7131    0.4267   -1.8948 H   0  0  0  0  0  0  0  0  0  0  0  0
   -6.8981    1.4897   -1.4713 H   0  0  0  0  0  0  0  0  0  0  0  0
   -5.3107    3.3750    2.0530 H   0  0  0  0  0  0  0  0  0  0  0  0
   -3.1266    2.3230    1.6503 H   0  0  0  0  0  0  0  0  0  0  0  0
    1.2512   -2.4698   -0.1657 H   0  0  0  0  0  0  0  0  0  0  0  0
    0.9901    2.4803    0.1587 H   0  0  0  0  0  0  0  0  0  0  0  0
    4.1454    1.0960   -0.2519 H   0  0  0  0  0  0  0  0  0  0  0  0
    4.4298   -0.8691    0.6001 H   0  0  0  0  0  0  0  0  0  0  0  0
    3.5771   -2.3683    0.3865 H   0  0  0  0  0  0  0  0  0  0  0  0
    3.5674   -2.0694   -2.1349 H   0  0  0  0  0  0  0  0  0  0  0  0
    6.0173   -0.4802   -3.8692 H   0  0  0  0  0  0  0  0  0  0  0  0
    6.7615   -2.0251   -3.3972 H   0  0  0  0  0  0  0  0  0  0  0  0
    5.0696   -1.9732   -3.9051 H   0  0  0  0  0  0  0  0  0  0  0  0
    6.1236    0.4441   -0.6712 H   0  0  0  0  0  0  0  0  0  0  0  0
    6.8074   -1.1494   -0.2536 H   0  0  0  0  0  0  0  0  0  0  0  0
    7.3907   -0.2628   -1.6649 H   0  0  0  0  0  0  0  0  0  0  0  0
   -7.4496    3.5631    1.3255 H   0  0  0  0  0  0  0  0  0  0  0  0
  1  2  1  0  0  0  0
  2  3  1  0  0  0  0
  2 25  1  6  0  0  0
  2  5  1  0  0  0  0
  3  4  1  0  0  0  0
  3 26  1  0  0  0  0
  3 27  1  0  0  0  0
  4 17  2  0  0  0  0
  5  6  2  0  0  0  0
  5 10  1  0  0  0  0
  6  7  1  0  0  0  0
  6 28  1  0  0  0  0
  7  8  2  0  0  0  0
  7 29  1  0  0  0  0
  8  9  1  0  0  0  0
  8 24  1  0  0  0  0
  9 10  2  0  0  0  0
  9 30  1  0  0  0  0
 10 31  1  0  0  0  0
 11  1  1  0  0  0  0
 11 16  2  0  0  0  0
 11 12  1  0  0  0  0
 12  4  1  0  0  0  0
 12 13  2  0  0  0  0
 13 14  1  0  0  0  0
 13 32  1  0  0  0  0
 14 15  2  0  0  0  0
 14 19  1  0  0  0  0
 15 16  1  0  0  0  0
 15 18  1  0  0  0  0
 16 33  1  0  0  0  0
 18 34  1  0  0  0  0
 19 20  1  0  0  0  0
 19 35  1  0  0  0  0
 19 36  1  0  0  0  0
 20 21  2  0  0  0  0
 20 37  1  0  0  0  0
 21 22  1  0  0  0  0
 21 23  1  0  0  0  0
 22 38  1  0  0  0  0
 22 39  1  0  0  0  0
 22 40  1  0  0  0  0
 23 41  1  0  0  0  0
 23 42  1  0  0  0  0
 23 43  1  0  0  0  0
 24 44  1  0  0  0  0
M  END
>  <Mol_ID>
3035

>  <Formula>
C20H20O4

>  <MolWeight>
324.3704

>  <Cat>
S5469

>  <Name>
Bavachin

>  <Synonyms>
Corylifolin

>  <Target>
Estrogen/progestogen Receptor

>  <Form>
free base

>  <CAS>
19879-32-4

>  <URL>
http://selleckchem.com/products/bavachin.html

$$$$
