S5474 Dibenzoyl Thiamine.cdx
 OpenBabel08302520013D

 61 63  0  0  0  0  0  0  0  0999 V2000
    2.8739   -1.6548   -0.3920 C   0  0  0  0  0  0  0  0  0  0  0  0
    2.8890   -2.1481    1.0323 C   0  0  0  0  0  0  0  0  0  0  0  0
    3.6063   -2.2268   -1.4204 C   0  0  0  0  0  0  0  0  0  0  0  0
    2.1865   -0.5116   -0.7565 C   0  0  0  0  0  0  0  0  0  0  0  0
    1.6047   -2.6281    1.5667 N   0  0  0  0  0  0  0  0  0  0  0  0
    3.6674   -1.7124   -2.6625 N   0  0  0  0  0  0  0  0  0  0  0  0
    4.3213   -3.4113   -1.2544 N   0  0  0  0  0  0  0  0  0  0  0  0
    2.2213    0.0442   -1.9855 N   0  0  0  0  0  0  0  0  0  0  0  0
    1.2427   -3.9683    1.3872 C   0  0  0  0  0  0  0  0  0  0  0  0
    0.7147   -1.6978    2.0885 C   0  0  0  0  0  0  0  0  0  0  0  0
    2.9885   -0.5748   -2.8930 C   0  0  0  0  0  0  0  0  0  0  0  0
    1.4049   -4.9197    2.3550 C   0  0  0  0  0  0  0  0  0  0  0  0
    0.7951   -4.2620   -0.0334 C   0  0  0  0  0  0  0  0  0  0  0  0
    0.9396   -0.5063    2.2589 O   0  0  0  0  0  0  0  0  0  0  0  0
    3.1762    0.0960   -4.2188 C   0  0  0  0  0  0  0  0  0  0  0  0
    1.2203   -6.6656    1.9015 S   0  0  0  0  0  0  0  0  0  0  0  0
    2.0465   -4.7074    3.7538 C   0  0  0  0  0  0  0  0  0  0  0  0
   -0.4566   -7.1195    2.2739 C   0  0  0  0  0  0  0  0  0  0  0  0
    1.9092   -3.3663    4.5097 C   0  0  0  0  0  0  0  0  0  0  0  0
   -1.0372   -8.3914    1.6666 C   0  0  0  0  0  0  0  0  0  0  0  0
   -1.1238   -6.4465    3.0514 O   0  0  0  0  0  0  0  0  0  0  0  0
    2.3334   -3.4313    5.9024 O   0  0  0  0  0  0  0  0  0  0  0  0
   -2.2914   -8.8325    2.1387 C   0  0  0  0  0  0  0  0  0  0  0  0
   -0.4216   -9.1645    0.6664 C   0  0  0  0  0  0  0  0  0  0  0  0
    3.6644   -3.2818    6.1405 C   0  0  0  0  0  0  0  0  0  0  0  0
   -2.8947  -10.0052    1.6538 C   0  0  0  0  0  0  0  0  0  0  0  0
   -1.0300  -10.3400    0.1798 C   0  0  0  0  0  0  0  0  0  0  0  0
    3.9696   -3.0624    7.5936 C   0  0  0  0  0  0  0  0  0  0  0  0
    4.5317   -3.3078    5.2835 O   0  0  0  0  0  0  0  0  0  0  0  0
   -2.2608  -10.7640    0.6771 C   0  0  0  0  0  0  0  0  0  0  0  0
    5.2937   -3.2192    8.0274 C   0  0  0  0  0  0  0  0  0  0  0  0
    3.0043   -2.6370    8.5160 C   0  0  0  0  0  0  0  0  0  0  0  0
    5.6466   -2.9659    9.3638 C   0  0  0  0  0  0  0  0  0  0  0  0
    3.3648   -2.3785    9.8482 C   0  0  0  0  0  0  0  0  0  0  0  0
    4.6828   -2.5438   10.2697 C   0  0  0  0  0  0  0  0  0  0  0  0
    3.6256   -2.9488    1.1761 H   0  0  0  0  0  0  0  0  0  0  0  0
    3.2406   -1.3178    1.6609 H   0  0  0  0  0  0  0  0  0  0  0  0
    1.5744    0.0409   -0.0482 H   0  0  0  0  0  0  0  0  0  0  0  0
    4.7772   -3.6049   -2.1442 H   0  0  0  0  0  0  0  0  0  0  0  0
    5.0008   -3.3536   -0.5061 H   0  0  0  0  0  0  0  0  0  0  0  0
   -0.2536   -2.1444    2.3711 H   0  0  0  0  0  0  0  0  0  0  0  0
    0.2341   -3.4162   -0.4475 H   0  0  0  0  0  0  0  0  0  0  0  0
    1.6662   -4.4389   -0.6720 H   0  0  0  0  0  0  0  0  0  0  0  0
    0.1337   -5.1278   -0.1078 H   0  0  0  0  0  0  0  0  0  0  0  0
    4.2270    0.3787   -4.3395 H   0  0  0  0  0  0  0  0  0  0  0  0
    2.8925   -0.5740   -5.0349 H   0  0  0  0  0  0  0  0  0  0  0  0
    2.5705    1.0055   -4.2877 H   0  0  0  0  0  0  0  0  0  0  0  0
    1.6762   -5.4864    4.4322 H   0  0  0  0  0  0  0  0  0  0  0  0
    3.1197   -4.9138    3.6409 H   0  0  0  0  0  0  0  0  0  0  0  0
    2.4693   -2.5618    4.0219 H   0  0  0  0  0  0  0  0  0  0  0  0
    0.8567   -3.0670    4.5416 H   0  0  0  0  0  0  0  0  0  0  0  0
   -2.8186   -8.2654    2.9037 H   0  0  0  0  0  0  0  0  0  0  0  0
    0.5344   -8.8819    0.2356 H   0  0  0  0  0  0  0  0  0  0  0  0
   -3.8604  -10.3246    2.0421 H   0  0  0  0  0  0  0  0  0  0  0  0
   -0.5421  -10.9323   -0.5942 H   0  0  0  0  0  0  0  0  0  0  0  0
   -2.7241  -11.6767    0.3044 H   0  0  0  0  0  0  0  0  0  0  0  0
    6.0690   -3.5309    7.3299 H   0  0  0  0  0  0  0  0  0  0  0  0
    1.9732   -2.4805    8.2115 H   0  0  0  0  0  0  0  0  0  0  0  0
    6.6806   -3.0922    9.6865 H   0  0  0  0  0  0  0  0  0  0  0  0
    2.6136   -2.0350   10.5589 H   0  0  0  0  0  0  0  0  0  0  0  0
    4.9577   -2.3369   11.3020 H   0  0  0  0  0  0  0  0  0  0  0  0
  1  2  1  0  0  0  0
  1  3  2  0  0  0  0
  1  4  1  0  0  0  0
  2  5  1  0  0  0  0
  2 36  1  0  0  0  0
  2 37  1  0  0  0  0
  3  6  1  0  0  0  0
  3  7  1  0  0  0  0
  4  8  2  0  0  0  0
  4 38  1  0  0  0  0
  5  9  1  0  0  0  0
  5 10  1  0  0  0  0
  6 11  2  0  0  0  0
  7 39  1  0  0  0  0
  7 40  1  0  0  0  0
  8 11  1  0  0  0  0
  9 12  2  0  0  0  0
  9 13  1  0  0  0  0
 10 14  2  0  0  0  0
 10 41  1  0  0  0  0
 11 15  1  0  0  0  0
 12 16  1  0  0  0  0
 12 17  1  0  0  0  0
 13 42  1  0  0  0  0
 13 43  1  0  0  0  0
 13 44  1  0  0  0  0
 15 45  1  0  0  0  0
 15 46  1  0  0  0  0
 15 47  1  0  0  0  0
 16 18  1  0  0  0  0
 17 19  1  0  0  0  0
 17 48  1  0  0  0  0
 17 49  1  0  0  0  0
 18 20  1  0  0  0  0
 18 21  2  0  0  0  0
 19 22  1  0  0  0  0
 19 50  1  0  0  0  0
 19 51  1  0  0  0  0
 20 23  2  0  0  0  0
 20 24  1  0  0  0  0
 22 25  1  0  0  0  0
 23 26  1  0  0  0  0
 23 52  1  0  0  0  0
 24 27  2  0  0  0  0
 24 53  1  0  0  0  0
 25 28  1  0  0  0  0
 25 29  2  0  0  0  0
 26 30  2  0  0  0  0
 26 54  1  0  0  0  0
 27 30  1  0  0  0  0
 27 55  1  0  0  0  0
 28 31  2  0  0  0  0
 28 32  1  0  0  0  0
 30 56  1  0  0  0  0
 31 33  1  0  0  0  0
 31 57  1  0  0  0  0
 32 34  2  0  0  0  0
 32 58  1  0  0  0  0
 33 35  2  0  0  0  0
 33 59  1  0  0  0  0
 34 35  1  0  0  0  0
 34 60  1  0  0  0  0
 35 61  1  0  0  0  0
M  END
>  <Mol_ID>
2893

>  <Formula>
C26H26N4O4S

>  <MolWeight>
490.57404

>  <Cat>
S5474

>  <Name>
Dibenzoyl Thiamine

>  <Synonyms>
Bentiamine, O,S-Dibenzoylthiamine

>  <Target>
Vitamin

>  <Form>
free base

>  <CAS>
299-88-7

>  <URL>
http://selleckchem.com/products/dibenzoyl-thiamine.html

$$$$
