S5485 Desipramine Hydrochloride.cdx
 OpenBabel08302520013D

 42 44  0  0  0  0  0  0  0  0999 V2000
    0.0792   -1.0326   -0.8380 N   0  0  0  0  0  0  0  0  0  0  0  0
    1.3226   -0.5197   -0.3919 C   0  0  0  0  0  0  0  0  0  0  0  0
   -1.1595   -0.6308   -0.2901 C   0  0  0  0  0  0  0  0  0  0  0  0
    0.0180   -1.3028   -2.3024 C   0  0  0  0  0  0  0  0  0  0  0  0
    1.5396    0.8049    0.0493 C   0  0  0  0  0  0  0  0  0  0  0  0
    2.3892   -1.4377   -0.2689 C   0  0  0  0  0  0  0  0  0  0  0  0
   -1.6023    0.7005   -0.3090 C   0  0  0  0  0  0  0  0  0  0  0  0
   -1.9330   -1.5921    0.3740 C   0  0  0  0  0  0  0  0  0  0  0  0
    0.3337   -2.7731   -2.6130 C   0  0  0  0  0  0  0  0  0  0  0  0
    0.5320    1.9362   -0.0073 C   0  0  0  0  0  0  0  0  0  0  0  0
    2.7837    1.1321    0.6372 C   0  0  0  0  0  0  0  0  0  0  0  0
    3.6189   -1.0877    0.2818 C   0  0  0  0  0  0  0  0  0  0  0  0
   -0.7098    1.7668   -0.8805 C   0  0  0  0  0  0  0  0  0  0  0  0
   -2.8252    1.0417    0.2896 C   0  0  0  0  0  0  0  0  0  0  0  0
   -3.1325   -1.2438    0.9956 C   0  0  0  0  0  0  0  0  0  0  0  0
    0.1706   -3.1758   -4.0837 C   0  0  0  0  0  0  0  0  0  0  0  0
    3.8134    0.1967    0.7497 C   0  0  0  0  0  0  0  0  0  0  0  0
   -3.5867    0.0707    0.9393 C   0  0  0  0  0  0  0  0  0  0  0  0
    1.1153   -2.4833   -4.9637 N   0  0  0  0  0  0  0  0  0  0  0  0
    1.0348   -2.9907   -6.3284 C   0  0  0  0  0  0  0  0  0  0  0  0
   -0.9848   -1.0824   -2.6948 H   0  0  0  0  0  0  0  0  0  0  0  0
    0.7022   -0.6374   -2.8441 H   0  0  0  0  0  0  0  0  0  0  0  0
    2.2430   -2.4756   -0.5483 H   0  0  0  0  0  0  0  0  0  0  0  0
   -1.5663   -2.6126    0.4460 H   0  0  0  0  0  0  0  0  0  0  0  0
    1.3583   -3.0158   -2.3210 H   0  0  0  0  0  0  0  0  0  0  0  0
   -0.3188   -3.4144   -2.0071 H   0  0  0  0  0  0  0  0  0  0  0  0
    0.2243    2.1613    1.0233 H   0  0  0  0  0  0  0  0  0  0  0  0
    1.0600    2.8242   -0.3821 H   0  0  0  0  0  0  0  0  0  0  0  0
    2.9480    2.1353    1.0286 H   0  0  0  0  0  0  0  0  0  0  0  0
    4.4032   -1.8310    0.3704 H   0  0  0  0  0  0  0  0  0  0  0  0
   -0.4464    1.5344   -1.9187 H   0  0  0  0  0  0  0  0  0  0  0  0
   -1.2493    2.7225   -0.9129 H   0  0  0  0  0  0  0  0  0  0  0  0
   -3.1741    2.0710    0.2854 H   0  0  0  0  0  0  0  0  0  0  0  0
   -3.6971   -1.9957    1.5401 H   0  0  0  0  0  0  0  0  0  0  0  0
    0.3588   -4.2550   -4.1445 H   0  0  0  0  0  0  0  0  0  0  0  0
   -0.8602   -3.0017   -4.4106 H   0  0  0  0  0  0  0  0  0  0  0  0
    4.7511    0.4746    1.2203 H   0  0  0  0  0  0  0  0  0  0  0  0
   -4.5182    0.3447    1.4276 H   0  0  0  0  0  0  0  0  0  0  0  0
    0.9264   -1.4831   -4.9724 H   0  0  0  0  0  0  0  0  0  0  0  0
    0.0486   -2.8042   -6.7653 H   0  0  0  0  0  0  0  0  0  0  0  0
    1.7814   -2.4857   -6.9497 H   0  0  0  0  0  0  0  0  0  0  0  0
    1.2482   -4.0638   -6.3693 H   0  0  0  0  0  0  0  0  0  0  0  0
  1  2  1  0  0  0  0
  1  3  1  0  0  0  0
  1  4  1  0  0  0  0
  2  5  2  0  0  0  0
  2  6  1  0  0  0  0
  3  7  2  0  0  0  0
  3  8  1  0  0  0  0
  4  9  1  0  0  0  0
  4 21  1  0  0  0  0
  4 22  1  0  0  0  0
  5 10  1  0  0  0  0
  5 11  1  0  0  0  0
  6 12  2  0  0  0  0
  6 23  1  0  0  0  0
  7 13  1  0  0  0  0
  7 14  1  0  0  0  0
  8 15  2  0  0  0  0
  8 24  1  0  0  0  0
  9 16  1  0  0  0  0
  9 25  1  0  0  0  0
  9 26  1  0  0  0  0
 10 13  1  0  0  0  0
 10 27  1  0  0  0  0
 10 28  1  0  0  0  0
 11 17  2  0  0  0  0
 11 29  1  0  0  0  0
 12 17  1  0  0  0  0
 12 30  1  0  0  0  0
 13 31  1  0  0  0  0
 13 32  1  0  0  0  0
 14 18  2  0  0  0  0
 14 33  1  0  0  0  0
 15 18  1  0  0  0  0
 15 34  1  0  0  0  0
 16 19  1  0  0  0  0
 16 35  1  0  0  0  0
 16 36  1  0  0  0  0
 17 37  1  0  0  0  0
 18 38  1  0  0  0  0
 19 20  1  0  0  0  0
 19 39  1  0  0  0  0
 20 40  1  0  0  0  0
 20 41  1  0  0  0  0
 20 42  1  0  0  0  0
M  END
>  <Mol_ID>
3039

>  <Formula>
C18H23ClN2

>  <MolWeight>
302.84162

>  <Cat>
S5485

>  <Name>
Desipramine Hydrochloride

>  <Synonyms>
Desmethylimipramine, Norimipramine, EX-4355, G-35020, JB-8181, NSC-114901

>  <Target>
5-HT Receptor,Serotonin Transporter

>  <Form>
hydrochloride

>  <CAS>
58-28-6

>  <URL>
http://selleckchem.com/products/desipramine-hydrochloride.html

$$$$
