S5483 Trimethobenzamide Hydrochloride.cdx
 OpenBabel08302520013D

 56 57  0  0  0  0  0  0  0  0999 V2000
    1.3780    0.2778    0.6028 C   0  0  0  0  0  0  0  0  0  0  0  0
    0.4535   -0.7067    0.9760 C   0  0  0  0  0  0  0  0  0  0  0  0
    0.9118    1.4512    0.0101 C   0  0  0  0  0  0  0  0  0  0  0  0
    2.8111    0.0277    0.9349 C   0  0  0  0  0  0  0  0  0  0  0  0
   -0.9249   -0.5524    0.7531 C   0  0  0  0  0  0  0  0  0  0  0  0
   -0.4643    1.6371   -0.1997 C   0  0  0  0  0  0  0  0  0  0  0  0
    3.7845    0.6466    0.1744 N   0  0  0  0  0  0  0  0  0  0  0  0
    3.0892   -0.7399    1.8480 O   0  0  0  0  0  0  0  0  0  0  0  0
   -1.3985    0.6271    0.1401 C   0  0  0  0  0  0  0  0  0  0  0  0
   -1.8358   -1.5063    1.1241 O   0  0  0  0  0  0  0  0  0  0  0  0
   -0.7510    2.8508   -0.7883 O   0  0  0  0  0  0  0  0  0  0  0  0
    5.1807    0.3625    0.4376 C   0  0  0  0  0  0  0  0  0  0  0  0
   -2.7029    0.8966   -0.1920 O   0  0  0  0  0  0  0  0  0  0  0  0
   -1.3696   -2.7041    1.7312 C   0  0  0  0  0  0  0  0  0  0  0  0
   -1.9930    3.4598   -0.4499 C   0  0  0  0  0  0  0  0  0  0  0  0
    6.0872    1.0214   -0.5683 C   0  0  0  0  0  0  0  0  0  0  0  0
   -3.7323   -0.0514    0.0489 C   0  0  0  0  0  0  0  0  0  0  0  0
    6.5247    2.3379   -0.3780 C   0  0  0  0  0  0  0  0  0  0  0  0
    6.4715    0.3490   -1.7354 C   0  0  0  0  0  0  0  0  0  0  0  0
    7.3008    2.9826   -1.3495 C   0  0  0  0  0  0  0  0  0  0  0  0
    7.2479    0.9948   -2.7033 C   0  0  0  0  0  0  0  0  0  0  0  0
    7.6572    2.3180   -2.5241 C   0  0  0  0  0  0  0  0  0  0  0  0
    8.3815    2.8455   -3.5619 O   0  0  0  0  0  0  0  0  0  0  0  0
    8.9665    4.1334   -3.3387 C   0  0  0  0  0  0  0  0  0  0  0  0
    9.9395    4.4590   -4.4897 C   0  0  0  0  0  0  0  0  0  0  0  0
   10.6138    5.7680   -4.3652 N   0  0  0  0  0  0  0  0  0  0  0  0
   11.4517    5.8576   -3.1664 C   0  0  0  0  0  0  0  0  0  0  0  0
   11.4472    6.0282   -5.5448 C   0  0  0  0  0  0  0  0  0  0  0  0
    0.8447   -1.6042    1.4484 H   0  0  0  0  0  0  0  0  0  0  0  0
    1.5953    2.2503   -0.2565 H   0  0  0  0  0  0  0  0  0  0  0  0
    3.5429    1.1704   -0.6577 H   0  0  0  0  0  0  0  0  0  0  0  0
    5.4172    0.7067    1.4519 H   0  0  0  0  0  0  0  0  0  0  0  0
    5.3307   -0.7243    0.4348 H   0  0  0  0  0  0  0  0  0  0  0  0
   -0.7453   -3.2767    1.0374 H   0  0  0  0  0  0  0  0  0  0  0  0
   -0.8424   -2.4968    2.6680 H   0  0  0  0  0  0  0  0  0  0  0  0
   -2.2439   -3.3155    1.9740 H   0  0  0  0  0  0  0  0  0  0  0  0
   -2.7994    3.0822   -1.0854 H   0  0  0  0  0  0  0  0  0  0  0  0
   -2.2339    3.3526    0.6140 H   0  0  0  0  0  0  0  0  0  0  0  0
   -1.9059    4.5317   -0.6579 H   0  0  0  0  0  0  0  0  0  0  0  0
   -3.5504   -0.9888   -0.4870 H   0  0  0  0  0  0  0  0  0  0  0  0
   -3.8857   -0.2059    1.1204 H   0  0  0  0  0  0  0  0  0  0  0  0
   -4.6627    0.3653   -0.3494 H   0  0  0  0  0  0  0  0  0  0  0  0
    6.2565    2.8759    0.5294 H   0  0  0  0  0  0  0  0  0  0  0  0
    6.1656   -0.6816   -1.9030 H   0  0  0  0  0  0  0  0  0  0  0  0
    7.5978    4.0087   -1.1598 H   0  0  0  0  0  0  0  0  0  0  0  0
    7.5321    0.4625   -3.6078 H   0  0  0  0  0  0  0  0  0  0  0  0
    8.1766    4.8953   -3.3002 H   0  0  0  0  0  0  0  0  0  0  0  0
    9.5146    4.1106   -2.3936 H   0  0  0  0  0  0  0  0  0  0  0  0
   10.6682    3.6458   -4.5922 H   0  0  0  0  0  0  0  0  0  0  0  0
    9.3514    4.4505   -5.4193 H   0  0  0  0  0  0  0  0  0  0  0  0
   12.2744    5.1333   -3.1831 H   0  0  0  0  0  0  0  0  0  0  0  0
   11.8778    6.8633   -3.0779 H   0  0  0  0  0  0  0  0  0  0  0  0
   10.8748    5.7022   -2.2508 H   0  0  0  0  0  0  0  0  0  0  0  0
   12.3276    5.3749   -5.5812 H   0  0  0  0  0  0  0  0  0  0  0  0
   10.8827    5.8915   -6.4734 H   0  0  0  0  0  0  0  0  0  0  0  0
   11.7936    7.0683   -5.5377 H   0  0  0  0  0  0  0  0  0  0  0  0
  1  2  2  0  0  0  0
  1  3  1  0  0  0  0
  1  4  1  0  0  0  0
  2  5  1  0  0  0  0
  2 29  1  0  0  0  0
  3  6  2  0  0  0  0
  3 30  1  0  0  0  0
  4  7  1  0  0  0  0
  4  8  2  0  0  0  0
  5  9  2  0  0  0  0
  5 10  1  0  0  0  0
  6 11  1  0  0  0  0
  6  9  1  0  0  0  0
  7 12  1  0  0  0  0
  7 31  1  0  0  0  0
  9 13  1  0  0  0  0
 10 14  1  0  0  0  0
 11 15  1  0  0  0  0
 12 16  1  0  0  0  0
 12 32  1  0  0  0  0
 12 33  1  0  0  0  0
 13 17  1  0  0  0  0
 14 34  1  0  0  0  0
 14 35  1  0  0  0  0
 14 36  1  0  0  0  0
 15 37  1  0  0  0  0
 15 38  1  0  0  0  0
 15 39  1  0  0  0  0
 16 18  2  0  0  0  0
 16 19  1  0  0  0  0
 17 40  1  0  0  0  0
 17 41  1  0  0  0  0
 17 42  1  0  0  0  0
 18 20  1  0  0  0  0
 18 43  1  0  0  0  0
 19 21  2  0  0  0  0
 19 44  1  0  0  0  0
 20 22  2  0  0  0  0
 20 45  1  0  0  0  0
 21 22  1  0  0  0  0
 21 46  1  0  0  0  0
 22 23  1  0  0  0  0
 23 24  1  0  0  0  0
 24 25  1  0  0  0  0
 24 47  1  0  0  0  0
 24 48  1  0  0  0  0
 25 26  1  0  0  0  0
 25 49  1  0  0  0  0
 25 50  1  0  0  0  0
 26 27  1  0  0  0  0
 26 28  1  0  0  0  0
 27 51  1  0  0  0  0
 27 52  1  0  0  0  0
 27 53  1  0  0  0  0
 28 54  1  0  0  0  0
 28 55  1  0  0  0  0
 28 56  1  0  0  0  0
M  END
>  <Mol_ID>
2894

>  <Formula>
C21H29ClN2O5

>  <MolWeight>
424.91836

>  <Cat>
S5483

>  <Name>
Tribenzagan Hydrochloride

>  <Synonyms>
Trimethobenzamide Hydrochloride

>  <Target>
Others

>  <Form>
hydrochloride

>  <CAS>
554-92-7

>  <URL>
http://selleckchem.com/products/trimethobenzamide-hydrochloride.html

$$$$
