S5490 Disopyramide.cdx
 OpenBabel08302520013D

 54 55  0  0  0  0  0  0  0  0999 V2000
    0.4442    0.0173    0.3520 C   0  0  3  0  0  0  0  0  0  0  0  0
   -0.6023   -0.3603    1.4445 C   0  0  0  0  0  0  0  0  0  0  0  0
    0.1974    1.4291   -0.2552 C   0  0  0  0  0  0  0  0  0  0  0  0
    0.4434   -1.0156   -0.8501 C   0  0  0  0  0  0  0  0  0  0  0  0
    1.8734   -0.0572    1.0135 C   0  0  0  0  0  0  0  0  0  0  0  0
   -1.4342    0.6058    2.0479 C   0  0  0  0  0  0  0  0  0  0  0  0
   -0.7765   -1.6968    1.8424 C   0  0  0  0  0  0  0  0  0  0  0  0
    1.1786    2.4222   -0.3223 C   0  0  0  0  0  0  0  0  0  0  0  0
   -1.0798    1.7001   -0.6479 N   0  0  0  0  0  0  0  0  0  0  0  0
   -0.8929   -1.3367   -1.5803 C   0  0  0  0  0  0  0  0  0  0  0  0
    2.0932    0.7168    2.1252 N   0  0  0  0  0  0  0  0  0  0  0  0
    2.8014   -0.7399    0.5849 O   0  0  0  0  0  0  0  0  0  0  0  0
   -2.5115    0.2371    2.8527 C   0  0  0  0  0  0  0  0  0  0  0  0
   -1.8478   -2.0652    2.6611 C   0  0  0  0  0  0  0  0  0  0  0  0
    0.8185    3.7206   -0.6893 C   0  0  0  0  0  0  0  0  0  0  0  0
   -1.4046    2.9622   -0.9949 C   0  0  0  0  0  0  0  0  0  0  0  0
   -0.8708   -2.4366   -2.5874 N   0  0  0  0  0  0  0  0  0  0  0  0
   -2.7390   -1.1043    3.1295 C   0  0  0  0  0  0  0  0  0  0  0  0
   -0.5012    4.0034   -1.0102 C   0  0  0  0  0  0  0  0  0  0  0  0
   -2.1920   -2.7131   -3.2251 C   0  0  0  0  0  0  0  0  0  0  0  0
    0.2284   -2.4980   -3.5787 C   0  0  0  0  0  0  0  0  0  0  0  0
   -3.1843   -3.3546   -2.2483 C   0  0  0  0  0  0  0  0  0  0  0  0
   -2.8820   -1.5379   -3.9342 C   0  0  0  0  0  0  0  0  0  0  0  0
    0.3581   -1.2942   -4.5186 C   0  0  0  0  0  0  0  0  0  0  0  0
    1.5918   -2.8847   -2.9878 C   0  0  0  0  0  0  0  0  0  0  0  0
    1.1409   -0.6126   -1.5925 H   0  0  0  0  0  0  0  0  0  0  0  0
    0.8633   -1.9654   -0.4944 H   0  0  0  0  0  0  0  0  0  0  0  0
   -1.3048    1.6675    1.8489 H   0  0  0  0  0  0  0  0  0  0  0  0
   -0.1109   -2.4786    1.4825 H   0  0  0  0  0  0  0  0  0  0  0  0
    2.2168    2.2315   -0.0669 H   0  0  0  0  0  0  0  0  0  0  0  0
   -1.6153   -1.6291   -0.8155 H   0  0  0  0  0  0  0  0  0  0  0  0
   -1.2662   -0.4223   -2.0452 H   0  0  0  0  0  0  0  0  0  0  0  0
    3.0186    0.6834    2.5437 H   0  0  0  0  0  0  0  0  0  0  0  0
    1.4054    1.3388    2.5096 H   0  0  0  0  0  0  0  0  0  0  0  0
   -3.1895    0.9986    3.2282 H   0  0  0  0  0  0  0  0  0  0  0  0
   -2.0050   -3.1124    2.9044 H   0  0  0  0  0  0  0  0  0  0  0  0
    1.5644    4.5109   -0.7059 H   0  0  0  0  0  0  0  0  0  0  0  0
   -2.4509    3.1153   -1.2411 H   0  0  0  0  0  0  0  0  0  0  0  0
   -3.6093   -1.3991    3.7086 H   0  0  0  0  0  0  0  0  0  0  0  0
   -0.8174    5.0067   -1.2699 H   0  0  0  0  0  0  0  0  0  0  0  0
   -2.0384   -3.4867   -3.9908 H   0  0  0  0  0  0  0  0  0  0  0  0
    0.0149   -3.3587   -4.2283 H   0  0  0  0  0  0  0  0  0  0  0  0
   -3.5586   -2.6410   -1.5069 H   0  0  0  0  0  0  0  0  0  0  0  0
   -4.0548   -3.7372   -2.7992 H   0  0  0  0  0  0  0  0  0  0  0  0
   -2.7369   -4.2060   -1.7264 H   0  0  0  0  0  0  0  0  0  0  0  0
   -2.2621   -1.0980   -4.7160 H   0  0  0  0  0  0  0  0  0  0  0  0
   -3.7983   -1.8825   -4.4288 H   0  0  0  0  0  0  0  0  0  0  0  0
   -3.1682   -0.7454   -3.2358 H   0  0  0  0  0  0  0  0  0  0  0  0
    0.0427   -0.3584   -4.0480 H   0  0  0  0  0  0  0  0  0  0  0  0
    1.3891   -1.1587   -4.8613 H   0  0  0  0  0  0  0  0  0  0  0  0
   -0.2525   -1.4452   -5.4148 H   0  0  0  0  0  0  0  0  0  0  0  0
    1.4842   -3.6235   -2.1873 H   0  0  0  0  0  0  0  0  0  0  0  0
    2.2148   -3.3425   -3.7655 H   0  0  0  0  0  0  0  0  0  0  0  0
    2.1580   -2.0302   -2.6136 H   0  0  0  0  0  0  0  0  0  0  0  0
  1  2  1  0  0  0  0
  1  3  1  0  0  0  0
  1  4  1  0  0  0  0
  1  5  1  0  0  0  0
  2  6  2  0  0  0  0
  2  7  1  0  0  0  0
  3  8  2  0  0  0  0
  3  9  1  0  0  0  0
  4 10  1  0  0  0  0
  4 26  1  0  0  0  0
  4 27  1  0  0  0  0
  5 11  1  0  0  0  0
  5 12  2  0  0  0  0
  6 13  1  0  0  0  0
  6 28  1  0  0  0  0
  7 14  2  0  0  0  0
  7 29  1  0  0  0  0
  8 15  1  0  0  0  0
  8 30  1  0  0  0  0
  9 16  2  0  0  0  0
 10 17  1  0  0  0  0
 10 31  1  0  0  0  0
 10 32  1  0  0  0  0
 11 33  1  0  0  0  0
 11 34  1  0  0  0  0
 13 18  2  0  0  0  0
 13 35  1  0  0  0  0
 14 18  1  0  0  0  0
 14 36  1  0  0  0  0
 15 19  2  0  0  0  0
 15 37  1  0  0  0  0
 16 19  1  0  0  0  0
 16 38  1  0  0  0  0
 17 20  1  0  0  0  0
 17 21  1  0  0  0  0
 18 39  1  0  0  0  0
 19 40  1  0  0  0  0
 20 22  1  0  0  0  0
 20 23  1  0  0  0  0
 20 41  1  0  0  0  0
 21 24  1  0  0  0  0
 21 25  1  0  0  0  0
 21 42  1  0  0  0  0
 22 43  1  0  0  0  0
 22 44  1  0  0  0  0
 22 45  1  0  0  0  0
 23 46  1  0  0  0  0
 23 47  1  0  0  0  0
 23 48  1  0  0  0  0
 24 49  1  0  0  0  0
 24 50  1  0  0  0  0
 24 51  1  0  0  0  0
 25 52  1  0  0  0  0
 25 53  1  0  0  0  0
 25 54  1  0  0  0  0
M  END
>  <Mol_ID>
2905

>  <Formula>
C21H29N3O

>  <MolWeight>
339.47446

>  <Cat>
S5490

>  <Name>
Disopyramide

>  <Synonyms>
N/A

>  <Target>
Sodium Channel

>  <Form>
Antiarrhythmic agent

>  <CAS>
3737-09-5

>  <URL>
http://selleckchem.com/products/disopyramide.html

$$$$
