S5496 Guanethidine Monosulfate.cdx
 OpenBabel08302521383D

 43 42  0  0  0  0  0  0  0  0999 V2000
    0.2954   -0.0130    0.3874 S   0  0  0  0  0  0  0  0  0  0  0  0
   -0.3809    0.2517   -1.0965 O   0  0  0  0  0  0  0  0  0  0  0  0
   -0.1525   -1.3825    1.1688 O   0  0  0  0  0  0  0  0  0  0  0  0
    0.1448    0.9503    1.4619 O   0  0  0  0  0  0  0  0  0  0  0  0
    1.3077   -0.0313   -0.6518 O   0  0  0  0  0  0  0  0  0  0  0  0
   -2.1777    0.0008   -0.1432 N   0  0  0  0  0  0  0  0  0  0  0  0
   -2.9286   -0.1958    1.1137 C   0  0  0  0  0  0  0  0  0  0  0  0
   -1.4551    1.6934   -0.1377 C   0  0  0  0  0  0  0  0  0  0  0  0
   -1.3859   -1.5512   -0.7026 C   0  0  0  0  0  0  0  0  0  0  0  0
   -4.1575    0.7165    1.1078 C   0  0  0  0  0  0  0  0  0  0  0  0
    0.3630    2.3530   -0.3538 C   0  0  0  0  0  0  0  0  0  0  0  0
    0.4595   -2.1427   -0.9431 C   0  0  0  0  0  0  0  0  0  0  0  0
   -4.9729    0.5686    2.3061 N   0  0  0  0  0  0  0  0  0  0  0  0
    2.0797    1.7442    0.2962 C   0  0  0  0  0  0  0  0  0  0  0  0
    2.1382   -1.7488   -0.0254 C   0  0  0  0  0  0  0  0  0  0  0  0
   -6.0280    1.3928    2.5365 C   0  0  0  0  0  0  0  0  0  0  0  0
    2.8578   -0.0222    0.5379 C   0  0  0  0  0  0  0  0  0  0  0  0
   -6.7198    1.7663    1.4357 N   0  0  0  0  0  0  0  0  0  0  0  0
   -6.3037    1.7969    3.7174 N   0  0  0  0  0  0  0  0  0  0  0  0
    0.3621    0.2625   -1.7394 H   0  0  0  0  0  0  0  0  0  0  0  0
    0.4395   -2.1422    1.2148 H   0  0  0  0  0  0  0  0  0  0  0  0
   -3.2667   -1.2343    1.2045 H   0  0  0  0  0  0  0  0  0  0  0  0
   -2.3000    0.0055    1.9897 H   0  0  0  0  0  0  0  0  0  0  0  0
   -2.0071    2.1591   -0.9665 H   0  0  0  0  0  0  0  0  0  0  0  0
   -1.8025    2.1433    0.8001 H   0  0  0  0  0  0  0  0  0  0  0  0
   -1.8617   -2.3306   -0.0892 H   0  0  0  0  0  0  0  0  0  0  0  0
   -1.8152   -1.6547   -1.7099 H   0  0  0  0  0  0  0  0  0  0  0  0
   -3.8666    1.7679    1.0220 H   0  0  0  0  0  0  0  0  0  0  0  0
   -4.7597    0.4677    0.2282 H   0  0  0  0  0  0  0  0  0  0  0  0
    0.5041    2.4318   -1.4422 H   0  0  0  0  0  0  0  0  0  0  0  0
    0.2958    3.3802    0.0312 H   0  0  0  0  0  0  0  0  0  0  0  0
    0.6743   -1.9136   -1.9985 H   0  0  0  0  0  0  0  0  0  0  0  0
    0.3861   -3.2373   -0.8727 H   0  0  0  0  0  0  0  0  0  0  0  0
   -4.4273    0.5048    3.1639 H   0  0  0  0  0  0  0  0  0  0  0  0
    2.7988    2.2676   -0.3478 H   0  0  0  0  0  0  0  0  0  0  0  0
    2.1692    2.2002    1.2955 H   0  0  0  0  0  0  0  0  0  0  0  0
    2.9031   -2.1389   -0.7107 H   0  0  0  0  0  0  0  0  0  0  0  0
    2.1908   -2.3728    0.8772 H   0  0  0  0  0  0  0  0  0  0  0  0
    3.8197    0.0457    0.0107 H   0  0  0  0  0  0  0  0  0  0  0  0
    3.0464   -0.1172    1.6149 H   0  0  0  0  0  0  0  0  0  0  0  0
   -7.6311    2.1762    1.6130 H   0  0  0  0  0  0  0  0  0  0  0  0
   -6.7560    1.0611    0.7232 H   0  0  0  0  0  0  0  0  0  0  0  0
   -7.0944    2.4384    3.6765 H   0  0  0  0  0  0  0  0  0  0  0  0
  1  2  1  0  0  0  0
  1  3  1  0  0  0  0
  1  4  2  0  0  0  0
  1  5  2  0  0  0  0
  2 20  1  0  0  0  0
  3 21  1  0  0  0  0
  6  7  1  0  0  0  0
  6  8  1  0  0  0  0
  6  9  1  0  0  0  0
  7 10  1  0  0  0  0
  7 22  1  0  0  0  0
  7 23  1  0  0  0  0
  8 11  1  0  0  0  0
  8 24  1  0  0  0  0
  8 25  1  0  0  0  0
  9 12  1  0  0  0  0
  9 26  1  0  0  0  0
  9 27  1  0  0  0  0
 10 13  1  0  0  0  0
 10 28  1  0  0  0  0
 10 29  1  0  0  0  0
 11 14  1  0  0  0  0
 11 30  1  0  0  0  0
 11 31  1  0  0  0  0
 12 15  1  0  0  0  0
 12 32  1  0  0  0  0
 12 33  1  0  0  0  0
 13 16  1  0  0  0  0
 13 34  1  0  0  0  0
 14 17  1  0  0  0  0
 14 35  1  0  0  0  0
 14 36  1  0  0  0  0
 15 17  1  0  0  0  0
 15 37  1  0  0  0  0
 15 38  1  0  0  0  0
 16 18  1  0  0  0  0
 16 19  2  0  0  0  0
 17 39  1  0  0  0  0
 17 40  1  0  0  0  0
 18 41  1  0  0  0  0
 18 42  1  0  0  0  0
 19 43  1  0  0  0  0
M  END
>  <Mol_ID>
7832

>  <Formula>
C10H24N4O4S

>  <MolWeight>
296.38696

>  <Cat>
S5496

>  <Name>
Guanethidine Monosulfate

>  <Synonyms>
N/A

>  <Target>
Adrenergic Receptor

>  <Form>
sulfate

>  <CAS>
645-43-2

>  <URL>
http://selleckchem.com/products/guanethidine-monosulfate.html

$$$$
