S5491 Lomefloxacin.cdx
 OpenBabel08302520293D

 44 46  0  0  0  0  0  0  0  0999 V2000
   -0.0056   -0.7342   -0.0688 C   0  0  0  0  0  0  0  0  0  0  0  0
   -0.0598    0.6729   -0.0657 C   0  0  0  0  0  0  0  0  0  0  0  0
    1.2603   -1.3756   -0.0406 N   0  0  0  0  0  0  0  0  0  0  0  0
   -1.2527   -1.3993   -0.0980 C   0  0  0  0  0  0  0  0  0  0  0  0
    1.1922    1.4601   -0.0272 C   0  0  0  0  0  0  0  0  0  0  0  0
   -1.2738    1.3637   -0.0918 C   0  0  0  0  0  0  0  0  0  0  0  0
    2.4103   -0.5976    0.0083 C   0  0  0  0  0  0  0  0  0  0  0  0
    1.3637   -2.8488    0.0054 C   0  0  0  0  0  0  0  0  0  0  0  0
   -2.5133   -0.7454   -0.0781 C   0  0  0  0  0  0  0  0  0  0  0  0
   -1.2659   -2.7416   -0.1788 F   0  0  0  0  0  0  0  0  0  0  0  0
    2.4771    0.7397    0.0101 C   0  0  0  0  0  0  0  0  0  0  0  0
    1.1796    2.6902   -0.0207 O   0  0  0  0  0  0  0  0  0  0  0  0
   -2.4702    0.6574   -0.0968 C   0  0  0  0  0  0  0  0  0  0  0  0
    1.2435   -3.3705    1.4311 C   0  0  0  0  0  0  0  0  0  0  0  0
   -3.7005   -1.4633   -0.0117 N   0  0  0  0  0  0  0  0  0  0  0  0
    3.7935    1.4033    0.0506 C   0  0  0  0  0  0  0  0  0  0  0  0
   -3.5979    1.3839   -0.0587 F   0  0  0  0  0  0  0  0  0  0  0  0
   -4.9686   -1.0065   -0.5994 C   0  0  0  0  0  0  0  0  0  0  0  0
   -3.7749   -2.7421    0.7140 C   0  0  0  0  0  0  0  0  0  0  0  0
    3.7394    2.7546    0.0504 O   0  0  0  0  0  0  0  0  0  0  0  0
    4.8526    0.7954    0.0783 O   0  0  0  0  0  0  0  0  0  0  0  0
   -6.1164   -1.0245    0.4482 C   0  0  3  0  0  0  0  0  0  0  0  0
   -4.9368   -2.7227    1.7307 C   0  0  0  0  0  0  0  0  0  0  0  0
   -6.2381   -2.3239    1.1595 N   0  0  0  0  0  0  0  0  0  0  0  0
   -6.0026    0.1391    1.4370 C   0  0  0  0  0  0  0  0  0  0  0  0
   -1.3056    2.4506   -0.0849 H   0  0  0  0  0  0  0  0  0  0  0  0
    3.3291   -1.1859    0.0462 H   0  0  0  0  0  0  0  0  0  0  0  0
    0.6541   -3.3369   -0.6679 H   0  0  0  0  0  0  0  0  0  0  0  0
    2.3425   -3.1578   -0.3851 H   0  0  0  0  0  0  0  0  0  0  0  0
    0.3079   -3.0614    1.9069 H   0  0  0  0  0  0  0  0  0  0  0  0
    1.2825   -4.4647    1.4370 H   0  0  0  0  0  0  0  0  0  0  0  0
    2.0692   -3.0031    2.0502 H   0  0  0  0  0  0  0  0  0  0  0  0
   -4.9049   -0.0277   -1.0839 H   0  0  0  0  0  0  0  0  0  0  0  0
   -5.2278   -1.7078   -1.4046 H   0  0  0  0  0  0  0  0  0  0  0  0
   -3.9173   -3.5546   -0.0086 H   0  0  0  0  0  0  0  0  0  0  0  0
   -2.8676   -2.9578    1.2878 H   0  0  0  0  0  0  0  0  0  0  0  0
    2.8216    3.1225    0.0259 H   0  0  0  0  0  0  0  0  0  0  0  0
   -7.0578   -0.8806   -0.0967 H   0  0  0  0  0  0  0  0  0  0  0  0
   -4.6816   -2.0545    2.5618 H   0  0  0  0  0  0  0  0  0  0  0  0
   -5.0385   -3.7221    2.1685 H   0  0  0  0  0  0  0  0  0  0  0  0
   -6.4947   -3.0290    0.4678 H   0  0  0  0  0  0  0  0  0  0  0  0
   -6.0350    1.0951    0.9032 H   0  0  0  0  0  0  0  0  0  0  0  0
   -6.8374    0.1306    2.1462 H   0  0  0  0  0  0  0  0  0  0  0  0
   -5.0709    0.1141    2.0107 H   0  0  0  0  0  0  0  0  0  0  0  0
  1  2  2  0  0  0  0
  1  3  1  0  0  0  0
  1  4  1  0  0  0  0
  2  5  1  0  0  0  0
  2  6  1  0  0  0  0
  3  7  1  0  0  0  0
  3  8  1  0  0  0  0
  4  9  2  0  0  0  0
  4 10  1  0  0  0  0
  5 11  1  0  0  0  0
  5 12  2  0  0  0  0
  6 13  2  0  0  0  0
  6 26  1  0  0  0  0
  7 11  2  0  0  0  0
  7 27  1  0  0  0  0
  8 14  1  0  0  0  0
  8 28  1  0  0  0  0
  8 29  1  0  0  0  0
  9 15  1  0  0  0  0
  9 13  1  0  0  0  0
 11 16  1  0  0  0  0
 13 17  1  0  0  0  0
 14 30  1  0  0  0  0
 14 31  1  0  0  0  0
 14 32  1  0  0  0  0
 15 18  1  0  0  0  0
 15 19  1  0  0  0  0
 16 20  1  0  0  0  0
 16 21  2  0  0  0  0
 18 22  1  0  0  0  0
 18 33  1  0  0  0  0
 18 34  1  0  0  0  0
 19 23  1  0  0  0  0
 19 35  1  0  0  0  0
 19 36  1  0  0  0  0
 20 37  1  0  0  0  0
 22 24  1  0  0  0  0
 22 25  1  0  0  0  0
 22 38  1  0  0  0  0
 23 24  1  0  0  0  0
 23 39  1  0  0  0  0
 23 40  1  0  0  0  0
 24 41  1  0  0  0  0
 25 42  1  0  0  0  0
 25 43  1  0  0  0  0
 25 44  1  0  0  0  0
M  END
>  <Mol_ID>
3227

>  <Formula>
C17H19F2N3O3

>  <MolWeight>
351.3478664

>  <Cat>
S5491

>  <Name>
Lomefloxacin

>  <Synonyms>
SC47111A

>  <Target>
Antibiotics,Bacterial

>  <Form>
free base

>  <CAS>
98079-51-7

>  <URL>
https://www.selleckchem.com/products/lomefloxacin.html

$$$$
