S5510 DMNB.cdx
 OpenBabel08302520013D

 24 24  0  0  0  0  0  0  0  0999 V2000
    1.3257   -0.2522    0.1049 C   0  0  0  0  0  0  0  0  0  0  0  0
    0.4987   -1.3698    0.0175 C   0  0  0  0  0  0  0  0  0  0  0  0
    0.7970    1.0417    0.1285 C   0  0  0  0  0  0  0  0  0  0  0  0
    2.7606   -0.3884    0.1974 N   0  3  0  0  0  0  0  0  0  0  0  0
   -0.8897   -1.1723   -0.0484 C   0  0  0  0  0  0  0  0  0  0  0  0
    1.0073   -2.7606   -0.0508 C   0  0  0  0  0  0  0  0  0  0  0  0
   -0.5894    1.2290    0.0869 C   0  0  0  0  0  0  0  0  0  0  0  0
    3.2015   -1.0205    1.1648 O   0  0  0  0  0  0  0  0  0  0  0  0
    3.4349    0.1344   -0.6963 O   0  5  0  0  0  0  0  0  0  0  0  0
   -1.4465    0.1171   -0.0241 C   0  0  0  0  0  0  0  0  0  0  0  0
    0.2360   -3.7105   -0.1146 O   0  0  0  0  0  0  0  0  0  0  0  0
   -0.9496    2.5517    0.1107 O   0  0  0  0  0  0  0  0  0  0  0  0
   -2.7891    0.3555   -0.1380 O   0  0  0  0  0  0  0  0  0  0  0  0
   -2.1923    2.8700    0.7280 C   0  0  0  0  0  0  0  0  0  0  0  0
   -3.6620   -0.7576   -0.2937 C   0  0  0  0  0  0  0  0  0  0  0  0
    1.4507    1.9102    0.1920 H   0  0  0  0  0  0  0  0  0  0  0  0
   -1.5241   -2.0516   -0.1329 H   0  0  0  0  0  0  0  0  0  0  0  0
    2.0957   -2.9261   -0.0579 H   0  0  0  0  0  0  0  0  0  0  0  0
   -3.0230    2.7200    0.0332 H   0  0  0  0  0  0  0  0  0  0  0  0
   -2.3398    2.3166    1.6617 H   0  0  0  0  0  0  0  0  0  0  0  0
   -2.1729    3.9360    0.9760 H   0  0  0  0  0  0  0  0  0  0  0  0
   -3.4231   -1.3273   -1.1975 H   0  0  0  0  0  0  0  0  0  0  0  0
   -3.6444   -1.3949    0.5962 H   0  0  0  0  0  0  0  0  0  0  0  0
   -4.6792   -0.3700   -0.4065 H   0  0  0  0  0  0  0  0  0  0  0  0
  1  2  2  0  0  0  0
  1  3  1  0  0  0  0
  1  4  1  0  0  0  0
  2  5  1  0  0  0  0
  2  6  1  0  0  0  0
  3  7  2  0  0  0  0
  3 16  1  0  0  0  0
  4  8  2  0  0  0  0
  4  9  1  0  0  0  0
  5 10  2  0  0  0  0
  5 17  1  0  0  0  0
  6 11  2  0  0  0  0
  6 18  1  0  0  0  0
  7 12  1  0  0  0  0
  7 10  1  0  0  0  0
 10 13  1  0  0  0  0
 12 14  1  0  0  0  0
 13 15  1  0  0  0  0
 14 19  1  0  0  0  0
 14 20  1  0  0  0  0
 14 21  1  0  0  0  0
 15 22  1  0  0  0  0
 15 23  1  0  0  0  0
 15 24  1  0  0  0  0
M  CHG  2   4   1   9  -1
M  END
>  <Mol_ID>
3041

>  <Formula>
C9H9NO5

>  <MolWeight>
211.17146

>  <Cat>
S5510

>  <Name>
DMNB

>  <Synonyms>
4,5-dimethoxy-2-nitrobenzaldehyde

>  <Target>
Others

>  <Form>
free base

>  <CAS>
20357-25-9

>  <URL>
http://selleckchem.com/products/dmnb.html

$$$$
