S5517 N-Phenylanthranilic acid.cdx
 OpenBabel08302520013D

 27 28  0  0  0  0  0  0  0  0999 V2000
    1.3328   -0.2076   -0.0024 C   0  0  0  0  0  0  0  0  0  0  0  0
    0.4689   -1.3269   -0.0023 C   0  0  0  0  0  0  0  0  0  0  0  0
    2.7359   -0.3581    0.0348 N   0  0  0  0  0  0  0  0  0  0  0  0
    0.7524    1.0722    0.0131 C   0  0  0  0  0  0  0  0  0  0  0  0
   -0.9271   -1.1452   -0.0146 C   0  0  0  0  0  0  0  0  0  0  0  0
    1.0459   -2.6991   -0.0470 C   0  0  0  0  0  0  0  0  0  0  0  0
    3.7383    0.4864    0.5358 C   0  0  0  0  0  0  0  0  0  0  0  0
   -0.6324    1.2467    0.0178 C   0  0  0  0  0  0  0  0  0  0  0  0
   -1.4716    0.1398    0.0070 C   0  0  0  0  0  0  0  0  0  0  0  0
    0.2994   -3.6431    0.5665 O   0  0  0  0  0  0  0  0  0  0  0  0
    2.1180   -2.9497   -0.5753 O   0  0  0  0  0  0  0  0  0  0  0  0
    3.5327    1.3157    1.6468 C   0  0  0  0  0  0  0  0  0  0  0  0
    4.9638    0.5706   -0.1366 C   0  0  0  0  0  0  0  0  0  0  0  0
    4.5284    2.1913    2.0863 C   0  0  0  0  0  0  0  0  0  0  0  0
    5.9595    1.4557    0.2915 C   0  0  0  0  0  0  0  0  0  0  0  0
    5.7408    2.2629    1.4040 C   0  0  0  0  0  0  0  0  0  0  0  0
    3.0722   -1.2483   -0.3460 H   0  0  0  0  0  0  0  0  0  0  0  0
    1.3867    1.9566   -0.0192 H   0  0  0  0  0  0  0  0  0  0  0  0
   -1.6069   -1.9912   -0.0738 H   0  0  0  0  0  0  0  0  0  0  0  0
   -1.0487    2.2520    0.0086 H   0  0  0  0  0  0  0  0  0  0  0  0
   -2.5498    0.2777   -0.0057 H   0  0  0  0  0  0  0  0  0  0  0  0
   -0.4271   -3.3043    1.1200 H   0  0  0  0  0  0  0  0  0  0  0  0
    2.5989    1.2642    2.1996 H   0  0  0  0  0  0  0  0  0  0  0  0
    5.1427   -0.0399   -1.0190 H   0  0  0  0  0  0  0  0  0  0  0  0
    4.3546    2.8141    2.9578 H   0  0  0  0  0  0  0  0  0  0  0  0
    6.8971    1.5179   -0.2513 H   0  0  0  0  0  0  0  0  0  0  0  0
    6.5131    2.9503    1.7392 H   0  0  0  0  0  0  0  0  0  0  0  0
  1  2  2  0  0  0  0
  1  3  1  0  0  0  0
  1  4  1  0  0  0  0
  2  5  1  0  0  0  0
  2  6  1  0  0  0  0
  3  7  1  0  0  0  0
  3 17  1  0  0  0  0
  4  8  2  0  0  0  0
  4 18  1  0  0  0  0
  5  9  2  0  0  0  0
  5 19  1  0  0  0  0
  6 10  1  0  0  0  0
  6 11  2  0  0  0  0
  7 12  2  0  0  0  0
  7 13  1  0  0  0  0
  8  9  1  0  0  0  0
  8 20  1  0  0  0  0
  9 21  1  0  0  0  0
 10 22  1  0  0  0  0
 12 14  1  0  0  0  0
 12 23  1  0  0  0  0
 13 15  2  0  0  0  0
 13 24  1  0  0  0  0
 14 16  2  0  0  0  0
 14 25  1  0  0  0  0
 15 16  1  0  0  0  0
 15 26  1  0  0  0  0
 16 27  1  0  0  0  0
M  END
>  <Mol_ID>
3044

>  <Formula>
C13H11NO2

>  <MolWeight>
213.23194

>  <Cat>
S5517

>  <Name>
Fenamic acid

>  <Synonyms>
N-Phenylanthranilic acid, 2-(Phenylamino)benzoic acid, 2-Anilinobenzoic acid, Diphenylamine-2-carboxylic acid

>  <Target>
Immunology & Inflammation related

>  <Form>
free base

>  <CAS>
91-40-7

>  <URL>
http://selleckchem.com/products/fenamic-acid.html

$$$$
