S5511 Ethyl (triphenylphosphoranylidene) acetate.cdx
 OpenBabel08302520013D

 46 48  0  0  0  0  0  0  0  0999 V2000
    1.0013   -0.0585   -0.0811 P   0  0  0  0  0  0  0  0  0  0  0  0
    1.0831   -1.8527    0.7796 C   0  0  0  0  0  0  0  0  0  0  0  0
    0.9662    1.3350    1.2869 C   0  0  0  0  0  0  0  0  0  0  0  0
   -0.8287   -0.0585   -0.0811 C   0  0  0  0  0  0  0  0  0  0  0  0
    2.6391   -0.0585   -0.0811 C   0  0  0  0  0  0  0  0  0  0  0  0
    0.7200   -2.0926    2.1229 C   0  0  0  0  0  0  0  0  0  0  0  0
    1.2462   -2.9553   -0.0754 C   0  0  0  0  0  0  0  0  0  0  0  0
    1.6427    2.5440    1.0488 C   0  0  0  0  0  0  0  0  0  0  0  0
    0.1971    1.2326    2.4606 C   0  0  0  0  0  0  0  0  0  0  0  0
   -1.6987   -1.0061    0.4985 C   0  0  0  0  0  0  0  0  0  0  0  0
   -1.4640    0.9574   -0.8200 C   0  0  0  0  0  0  0  0  0  0  0  0
    3.6396    0.0255    1.0204 C   0  0  0  0  0  0  0  0  0  0  0  0
    0.3078   -3.3678    2.5312 C   0  0  0  0  0  0  0  0  0  0  0  0
    0.9014   -4.2403    0.3651 C   0  0  0  0  0  0  0  0  0  0  0  0
    1.6115    3.5753    1.9960 C   0  0  0  0  0  0  0  0  0  0  0  0
    0.1785    2.2567    3.4096 C   0  0  0  0  0  0  0  0  0  0  0  0
   -3.0928   -0.8961    0.4712 C   0  0  0  0  0  0  0  0  0  0  0  0
   -2.8676    1.0584   -0.8822 C   0  0  0  0  0  0  0  0  0  0  0  0
    3.1966   -0.5532    2.1349 O   0  0  0  0  0  0  0  0  0  0  0  0
    4.7147    0.5677    0.8204 O   0  0  0  0  0  0  0  0  0  0  0  0
    0.3712   -4.4353    1.6417 C   0  0  0  0  0  0  0  0  0  0  0  0
    0.8942    3.4258    3.1813 C   0  0  0  0  0  0  0  0  0  0  0  0
   -3.6806    0.1448   -0.2186 C   0  0  0  0  0  0  0  0  0  0  0  0
    4.0358   -0.5099    3.2956 C   0  0  0  0  0  0  0  0  0  0  0  0
    5.0189   -1.6655    3.2900 C   0  0  0  0  0  0  0  0  0  0  0  0
    3.1413   -0.0966   -1.0613 H   0  0  0  0  0  0  0  0  0  0  0  0
    0.6338   -1.2917    2.8420 H   0  0  0  0  0  0  0  0  0  0  0  0
    1.5859   -2.8152   -1.0956 H   0  0  0  0  0  0  0  0  0  0  0  0
    2.2005    2.6924    0.1292 H   0  0  0  0  0  0  0  0  0  0  0  0
   -0.4439    0.3795    2.6440 H   0  0  0  0  0  0  0  0  0  0  0  0
   -1.3431   -1.8936    0.9959 H   0  0  0  0  0  0  0  0  0  0  0  0
   -0.8677    1.6885   -1.3610 H   0  0  0  0  0  0  0  0  0  0  0  0
   -0.1252   -3.5088    3.5202 H   0  0  0  0  0  0  0  0  0  0  0  0
    0.9912   -5.0898   -0.3074 H   0  0  0  0  0  0  0  0  0  0  0  0
    2.1466    4.5032    1.8079 H   0  0  0  0  0  0  0  0  0  0  0  0
   -0.4125    2.1475    4.3154 H   0  0  0  0  0  0  0  0  0  0  0  0
   -3.7018   -1.6418    0.9800 H   0  0  0  0  0  0  0  0  0  0  0  0
   -3.3273    1.8557   -1.4641 H   0  0  0  0  0  0  0  0  0  0  0  0
   -0.0040   -5.4128    1.9390 H   0  0  0  0  0  0  0  0  0  0  0  0
    0.8698    4.2292    3.9133 H   0  0  0  0  0  0  0  0  0  0  0  0
   -4.7627    0.2428   -0.2374 H   0  0  0  0  0  0  0  0  0  0  0  0
    4.5460    0.4557    3.3821 H   0  0  0  0  0  0  0  0  0  0  0  0
    3.3726   -0.6069    4.1627 H   0  0  0  0  0  0  0  0  0  0  0  0
    5.7970   -1.5070    2.5370 H   0  0  0  0  0  0  0  0  0  0  0  0
    5.5016   -1.7651    4.2669 H   0  0  0  0  0  0  0  0  0  0  0  0
    4.5185   -2.6080    3.0442 H   0  0  0  0  0  0  0  0  0  0  0  0
  1  2  1  0  0  0  0
  1  3  1  0  0  0  0
  1  4  1  0  0  0  0
  1  5  2  0  0  0  0
  2  6  2  0  0  0  0
  2  7  1  0  0  0  0
  3  8  2  0  0  0  0
  3  9  1  0  0  0  0
  4 10  2  0  0  0  0
  4 11  1  0  0  0  0
  5 12  1  0  0  0  0
  5 26  1  0  0  0  0
  6 13  1  0  0  0  0
  6 27  1  0  0  0  0
  7 14  2  0  0  0  0
  7 28  1  0  0  0  0
  8 15  1  0  0  0  0
  8 29  1  0  0  0  0
  9 16  2  0  0  0  0
  9 30  1  0  0  0  0
 10 17  1  0  0  0  0
 10 31  1  0  0  0  0
 11 18  2  0  0  0  0
 11 32  1  0  0  0  0
 12 19  1  0  0  0  0
 12 20  2  0  0  0  0
 13 21  2  0  0  0  0
 13 33  1  0  0  0  0
 14 21  1  0  0  0  0
 14 34  1  0  0  0  0
 15 22  2  0  0  0  0
 15 35  1  0  0  0  0
 16 22  1  0  0  0  0
 16 36  1  0  0  0  0
 17 23  2  0  0  0  0
 17 37  1  0  0  0  0
 18 23  1  0  0  0  0
 18 38  1  0  0  0  0
 19 24  1  0  0  0  0
 21 39  1  0  0  0  0
 22 40  1  0  0  0  0
 23 41  1  0  0  0  0
 24 25  1  0  0  0  0
 24 42  1  0  0  0  0
 24 43  1  0  0  0  0
 25 44  1  0  0  0  0
 25 45  1  0  0  0  0
 25 46  1  0  0  0  0
M  END
>  <Mol_ID>
3042

>  <Formula>
C22H21O2P

>  <MolWeight>
348.374701

>  <Cat>
S5511

>  <Name>
Ethyl (triphenylphosphoranylidene) acetate

>  <Synonyms>
(Carbethoxymethylene)triphenylphosphorane, Triphenylcarbethoxymethylenephosphorane, Ethyl 2-(triphenylphosphoranylidene)acetate

>  <Target>
AChR,BChE

>  <Form>
free base

>  <CAS>
1099-45-2

>  <URL>
http://selleckchem.com/products/ethyl-triphenylphosphoranylidene-acetate.html

$$$$
