S5544 D-Ribose.cdx
 OpenBabel08302520013D

 20 19  0  0  0  0  0  0  0  0999 V2000
    0.8195   -1.0258    2.2399 C   0  0  2  0  0  0  0  0  0  0  0  0
    2.3615   -0.8554    2.2954 C   0  0  1  0  0  0  0  0  0  0  0  0
    0.3113   -1.2053    0.8049 C   0  0  2  0  0  0  0  0  0  0  0  0
    0.1246    0.0795    2.8442 O   0  0  0  0  0  0  0  0  0  0  0  0
    2.8571    0.4398    1.6366 C   0  0  0  0  0  0  0  0  0  0  0  0
    2.7710   -0.8436    3.6737 O   0  0  0  0  0  0  0  0  0  0  0  0
   -1.1792   -1.5074    0.8454 C   0  0  0  0  0  0  0  0  0  0  0  0
    1.0354   -2.2351    0.1390 O   0  0  0  0  0  0  0  0  0  0  0  0
    2.1916    1.5502    2.2541 O   0  0  0  0  0  0  0  0  0  0  0  0
   -1.6571   -2.5763    0.4653 O   0  0  0  0  0  0  0  0  0  0  0  0
    0.5555   -1.9065    2.8376 H   0  0  0  0  0  0  0  0  0  0  0  0
    2.8569   -1.7154    1.8326 H   0  0  0  0  0  0  0  0  0  0  0  0
    0.4250   -0.2831    0.2242 H   0  0  0  0  0  0  0  0  0  0  0  0
    0.7865    0.7835    3.0144 H   0  0  0  0  0  0  0  0  0  0  0  0
    3.9313    0.5713    1.7999 H   0  0  0  0  0  0  0  0  0  0  0  0
    2.6534    0.4521    0.5621 H   0  0  0  0  0  0  0  0  0  0  0  0
    2.6441    0.0672    3.9992 H   0  0  0  0  0  0  0  0  0  0  0  0
   -1.8229   -0.6977    1.2272 H   0  0  0  0  0  0  0  0  0  0  0  0
    0.5878   -3.0763    0.3653 H   0  0  0  0  0  0  0  0  0  0  0  0
    2.1108    2.2448    1.5730 H   0  0  0  0  0  0  0  0  0  0  0  0
  1  2  1  0  0  0  0
  1  4  1  0  0  0  0
  1 11  1  1  0  0  0
  2  5  1  0  0  0  0
  2  6  1  0  0  0  0
  2 12  1  6  0  0  0
  3  8  1  0  0  0  0
  3 13  1  6  0  0  0
  3  7  1  0  0  0  0
  3  1  1  0  0  0  0
  4 14  1  0  0  0  0
  5  9  1  0  0  0  0
  5 15  1  0  0  0  0
  5 16  1  0  0  0  0
  6 17  1  0  0  0  0
  7 10  2  0  0  0  0
  7 18  1  0  0  0  0
  8 19  1  0  0  0  0
  9 20  1  0  0  0  0
M  END
>  <Mol_ID>
3056

>  <Formula>
C5H10O5

>  <MolWeight>
150.1299

>  <Cat>
S5544

>  <Name>
D-Ribose

>  <Synonyms>
N/A

>  <Target>
Others

>  <Form>
free base

>  <CAS>
50-69-1

>  <URL>
http://selleckchem.com/products/d-ribose.html

$$$$
