S5542 7-Nitroindazole.cdx
 OpenBabel08302520143D

 17 18  0  0  0  0  0  0  0  0999 V2000
   -0.1827    0.6721   -0.0002 C   0  0  0  0  0  0  0  0  0  0  0  0
   -0.1865   -0.7186    0.0014 C   0  0  0  0  0  0  0  0  0  0  0  0
    1.0022    1.4260   -0.0039 C   0  0  0  0  0  0  0  0  0  0  0  0
   -1.5061    1.0370    0.0022 N   0  0  0  0  0  0  0  0  0  0  0  0
   -1.5546   -1.0684   -0.0004 C   0  0  0  0  0  0  0  0  0  0  0  0
    1.0372   -1.4108    0.0027 C   0  0  0  0  0  0  0  0  0  0  0  0
    2.2181    0.7178   -0.0037 C   0  0  0  0  0  0  0  0  0  0  0  0
    1.0140    2.8904   -0.0100 N   0  3  0  0  0  0  0  0  0  0  0  0
   -2.3586   -0.0024    0.0009 N   0  0  0  0  0  0  0  0  0  0  0  0
    2.2322   -0.6792    0.0004 C   0  0  0  0  0  0  0  0  0  0  0  0
   -0.0881    3.4606   -0.0117 O   0  0  0  0  0  0  0  0  0  0  0  0
    2.1095    3.4671   -0.0135 O   0  5  0  0  0  0  0  0  0  0  0  0
   -1.8837    1.9814    0.0046 H   0  0  0  0  0  0  0  0  0  0  0  0
   -1.9949   -2.0573   -0.0031 H   0  0  0  0  0  0  0  0  0  0  0  0
    1.0599   -2.4976    0.0052 H   0  0  0  0  0  0  0  0  0  0  0  0
    3.1701    1.2478   -0.0068 H   0  0  0  0  0  0  0  0  0  0  0  0
    3.1835   -1.2087    0.0010 H   0  0  0  0  0  0  0  0  0  0  0  0
  1  2  1  0  0  0  0
  1  3  2  0  0  0  0
  1  4  1  0  0  0  0
  2  5  1  0  0  0  0
  2  6  2  0  0  0  0
  3  7  1  0  0  0  0
  3  8  1  0  0  0  0
  4  9  1  0  0  0  0
  4 13  1  0  0  0  0
  5  9  2  0  0  0  0
  5 14  1  0  0  0  0
  6 10  1  0  0  0  0
  6 15  1  0  0  0  0
  7 10  2  0  0  0  0
  7 16  1  0  0  0  0
  8 11  2  0  0  0  0
  8 12  1  0  0  0  0
 10 17  1  0  0  0  0
M  CHG  2   8   1  12  -1
M  END
>  <Mol_ID>
3130

>  <Formula>
C7H5N3O2

>  <MolWeight>
163.1335

>  <Cat>
S5542

>  <Name>
7-Nitroindazole

>  <Synonyms>
N/A

>  <Target>
NOS

>  <Form>
free base

>  <CAS>
2942-42-9

>  <URL>
https://www.selleckchem.com/products/7-nitroindazole.html

$$$$
