S5562 2-Hydroxybenzyl alcohol.cdx
 OpenBabel08302520013D

 17 17  0  0  0  0  0  0  0  0999 V2000
    1.0585   -0.0370   -0.0956 C   0  0  0  0  0  0  0  0  0  0  0  0
    0.6560    1.1408    0.7466 C   0  0  0  0  0  0  0  0  0  0  0  0
    0.9984    2.4507    0.3847 C   0  0  0  0  0  0  0  0  0  0  0  0
    0.6394    3.5344    1.1800 C   0  0  0  0  0  0  0  0  0  0  0  0
   -0.0785    3.3227    2.3557 C   0  0  0  0  0  0  0  0  0  0  0  0
   -0.4263    2.0277    2.7342 C   0  0  0  0  0  0  0  0  0  0  0  0
   -0.0544    0.9406    1.9377 C   0  0  0  0  0  0  0  0  0  0  0  0
    1.6769    2.7288   -0.7692 O   0  0  0  0  0  0  0  0  0  0  0  0
    0.6572    0.1981   -1.4433 O   0  0  0  0  0  0  0  0  0  0  0  0
    0.5928   -0.9673    0.2447 H   0  0  0  0  0  0  0  0  0  0  0  0
    2.1454   -0.1671   -0.0738 H   0  0  0  0  0  0  0  0  0  0  0  0
    0.9120    4.5418    0.8787 H   0  0  0  0  0  0  0  0  0  0  0  0
   -0.3676    4.1683    2.9738 H   0  0  0  0  0  0  0  0  0  0  0  0
   -0.9854    1.8622    3.6517 H   0  0  0  0  0  0  0  0  0  0  0  0
   -0.3327   -0.0620    2.2548 H   0  0  0  0  0  0  0  0  0  0  0  0
    1.6824    1.9221   -1.3220 H   0  0  0  0  0  0  0  0  0  0  0  0
   -0.2780    0.4758   -1.4062 H   0  0  0  0  0  0  0  0  0  0  0  0
  1  2  1  0  0  0  0
  1  9  1  0  0  0  0
  1 10  1  0  0  0  0
  1 11  1  0  0  0  0
  2  3  2  0  0  0  0
  2  7  1  0  0  0  0
  3  4  1  0  0  0  0
  3  8  1  0  0  0  0
  4  5  2  0  0  0  0
  4 12  1  0  0  0  0
  5  6  1  0  0  0  0
  5 13  1  0  0  0  0
  6  7  2  0  0  0  0
  6 14  1  0  0  0  0
  7 15  1  0  0  0  0
  8 16  1  0  0  0  0
  9 17  1  0  0  0  0
M  END
>  <Mol_ID>
3065

>  <Formula>
C7H8O2

>  <MolWeight>
124.13722

>  <Cat>
S5562

>  <Name>
2-Hydroxybenzyl alcohol

>  <Synonyms>
Salicain, Diathesin, Saligenin, Saligenol, o-Methylolphenol, ¦Á,2-Toluenediol

>  <Target>
Others

>  <Form>
free base

>  <CAS>
90-01-7

>  <URL>
http://selleckchem.com/products/2-hydroxybenzyl-alcohol.html

$$$$
