S5574 Benzaldehyde.cdx
 OpenBabel08302520013D

 14 14  0  0  0  0  0  0  0  0999 V2000
    1.3858   -0.2250    0.0532 C   0  0  0  0  0  0  0  0  0  0  0  0
    0.5091   -1.3133    0.0258 C   0  0  0  0  0  0  0  0  0  0  0  0
    0.8921    1.0828    0.0373 C   0  0  0  0  0  0  0  0  0  0  0  0
    2.8442   -0.4491    0.1085 C   0  0  0  0  0  0  0  0  0  0  0  0
   -0.8678   -1.0914   -0.0096 C   0  0  0  0  0  0  0  0  0  0  0  0
   -0.4868    1.2983    0.0050 C   0  0  0  0  0  0  0  0  0  0  0  0
    3.3327   -1.5709    0.1513 O   0  0  0  0  0  0  0  0  0  0  0  0
   -1.3642    0.2126   -0.0162 C   0  0  0  0  0  0  0  0  0  0  0  0
    0.8952   -2.3305    0.0345 H   0  0  0  0  0  0  0  0  0  0  0  0
    1.5647    1.9361    0.0540 H   0  0  0  0  0  0  0  0  0  0  0  0
    3.4800    0.4526    0.1139 H   0  0  0  0  0  0  0  0  0  0  0  0
   -1.5527   -1.9357   -0.0286 H   0  0  0  0  0  0  0  0  0  0  0  0
   -0.8803    2.3122   -0.0007 H   0  0  0  0  0  0  0  0  0  0  0  0
   -2.4384    0.3828   -0.0369 H   0  0  0  0  0  0  0  0  0  0  0  0
  1  2  2  0  0  0  0
  1  3  1  0  0  0  0
  1  4  1  0  0  0  0
  2  5  1  0  0  0  0
  2  9  1  0  0  0  0
  3  6  2  0  0  0  0
  3 10  1  0  0  0  0
  4  7  2  0  0  0  0
  4 11  1  0  0  0  0
  5  8  2  0  0  0  0
  5 12  1  0  0  0  0
  6  8  1  0  0  0  0
  6 13  1  0  0  0  0
  8 14  1  0  0  0  0
M  END
>  <Mol_ID>
3070

>  <Formula>
C7H6O

>  <MolWeight>
106.12194

>  <Cat>
S5574

>  <Name>
Benzoic aldehyde

>  <Synonyms>
Benzenecarboxaldehyde, Phenylmethanal, Benzoic aldehyde

>  <Target>
Others

>  <Form>
free base

>  <CAS>
100-52-7

>  <URL>
http://selleckchem.com/products/benzaldehyde.html

$$$$
