S5583 Cinnamyl acetate.cdx
 OpenBabel08302520013D

 25 25  0  0  0  0  0  0  0  0999 V2000
    1.3254   -0.1358    0.1760 C   0  0  0  0  0  0  0  0  0  0  0  0
    2.7675   -0.3845    0.3339 C   0  0  0  0  0  0  0  0  0  0  0  0
    0.5279   -1.1534   -0.3661 C   0  0  0  0  0  0  0  0  0  0  0  0
    0.7055    1.0509    0.5873 C   0  0  0  0  0  0  0  0  0  0  0  0
    3.7217    0.5598    0.3248 C   0  0  0  0  0  0  0  0  0  0  0  0
   -0.8508   -0.9823   -0.5146 C   0  0  0  0  0  0  0  0  0  0  0  0
   -0.6746    1.2234    0.4390 C   0  0  0  0  0  0  0  0  0  0  0  0
    5.1891    0.2670    0.4264 C   0  0  0  0  0  0  0  0  0  0  0  0
   -1.4521    0.2082   -0.1128 C   0  0  0  0  0  0  0  0  0  0  0  0
    5.7304    0.8572    1.6152 O   0  0  0  0  0  0  0  0  0  0  0  0
    6.1383    2.1482    1.5004 C   0  0  0  0  0  0  0  0  0  0  0  0
    6.7949    2.6077    2.7672 C   0  0  0  0  0  0  0  0  0  0  0  0
    6.0330    2.8443    0.5000 O   0  0  0  0  0  0  0  0  0  0  0  0
    3.0507   -1.4301    0.4367 H   0  0  0  0  0  0  0  0  0  0  0  0
    0.9748   -2.0912   -0.6893 H   0  0  0  0  0  0  0  0  0  0  0  0
    1.2837    1.8544    1.0365 H   0  0  0  0  0  0  0  0  0  0  0  0
    3.4664    1.6081    0.1893 H   0  0  0  0  0  0  0  0  0  0  0  0
   -1.4537   -1.7782   -0.9438 H   0  0  0  0  0  0  0  0  0  0  0  0
   -1.1414    2.1507    0.7595 H   0  0  0  0  0  0  0  0  0  0  0  0
    5.3721   -0.8109    0.4978 H   0  0  0  0  0  0  0  0  0  0  0  0
    5.7175    0.6154   -0.4687 H   0  0  0  0  0  0  0  0  0  0  0  0
   -2.5243    0.3423   -0.2270 H   0  0  0  0  0  0  0  0  0  0  0  0
    7.8799    2.5801    2.6416 H   0  0  0  0  0  0  0  0  0  0  0  0
    6.4653    3.6248    2.9952 H   0  0  0  0  0  0  0  0  0  0  0  0
    6.5115    1.9672    3.6073 H   0  0  0  0  0  0  0  0  0  0  0  0
  1  2  1  0  0  0  0
  1  3  2  0  0  0  0
  1  4  1  0  0  0  0
  2  5  2  0  0  0  0
  2 14  1  0  0  0  0
  3  6  1  0  0  0  0
  3 15  1  0  0  0  0
  4  7  2  0  0  0  0
  4 16  1  0  0  0  0
  5  8  1  0  0  0  0
  5 17  1  0  0  0  0
  6  9  2  0  0  0  0
  6 18  1  0  0  0  0
  7  9  1  0  0  0  0
  7 19  1  0  0  0  0
  8 10  1  0  0  0  0
  8 20  1  0  0  0  0
  8 21  1  0  0  0  0
  9 22  1  0  0  0  0
 10 11  1  0  0  0  0
 11 12  1  0  0  0  0
 11 13  2  0  0  0  0
 12 23  1  0  0  0  0
 12 24  1  0  0  0  0
 12 25  1  0  0  0  0
M  END
>  <Mol_ID>
3076

>  <Formula>
C11H12O2

>  <MolWeight>
176.21178

>  <Cat>
S5583

>  <Name>
Cinnamyl acetate

>  <Synonyms>
3-Phenylallyl acetate

>  <Target>
Others

>  <Form>
free base

>  <CAS>
103-54-8

>  <URL>
http://selleckchem.com/products/cinnamyl-acetate.html

$$$$
