S5582 Cytarabine hydrochloride.cdx
 OpenBabel08302520013D

 30 31  0  0  0  0  0  0  0  0999 V2000
   -1.4460   -3.4585    0.1434 N   0  0  0  0  0  0  0  0  0  0  0  0
   -2.4268   -2.9943    1.0246 C   0  0  0  0  0  0  0  0  0  0  0  0
   -2.1375   -2.1840    1.9009 O   0  0  0  0  0  0  0  0  0  0  0  0
   -3.6982   -3.5014    0.9278 N   0  0  0  0  0  0  0  0  0  0  0  0
   -3.9988   -4.3052   -0.0389 C   0  0  0  0  0  0  0  0  0  0  0  0
   -5.2635   -4.8229   -0.0522 N   0  0  0  0  0  0  0  0  0  0  0  0
   -3.0511   -4.6671   -1.1068 C   0  0  0  0  0  0  0  0  0  0  0  0
   -1.8065   -4.2205   -0.9486 C   0  0  0  0  0  0  0  0  0  0  0  0
   -0.0784   -2.9508    0.3192 C   0  0  1  0  0  0  0  0  0  0  0  0
    0.6560   -3.3224    1.6346 C   0  0  1  0  0  0  0  0  0  0  0  0
   -0.0179   -3.3589    2.8809 O   0  0  0  0  0  0  0  0  0  0  0  0
    1.1901   -4.6996    1.2927 C   0  0  2  0  0  0  0  0  0  0  0  0
    2.2690   -5.1361    2.1097 O   0  0  0  0  0  0  0  0  0  0  0  0
    1.6421   -4.4867   -0.1403 C   0  0  2  0  0  0  0  0  0  0  0  0
    0.7764   -3.4827   -0.7298 O   0  0  0  0  0  0  0  0  0  0  0  0
    1.5872   -5.7828   -0.9468 C   0  0  0  0  0  0  0  0  0  0  0  0
    2.0340   -5.5497   -2.2818 O   0  0  0  0  0  0  0  0  0  0  0  0
   -5.6763   -5.0708   -0.9404 H   0  0  0  0  0  0  0  0  0  0  0  0
   -5.8958   -4.3503    0.5860 H   0  0  0  0  0  0  0  0  0  0  0  0
   -3.3665   -5.2718   -1.9432 H   0  0  0  0  0  0  0  0  0  0  0  0
   -1.0533   -4.4487   -1.6947 H   0  0  0  0  0  0  0  0  0  0  0  0
   -0.1237   -1.8582    0.2051 H   0  0  0  0  0  0  0  0  0  0  0  0
    1.5040   -2.6359    1.7626 H   0  0  0  0  0  0  0  0  0  0  0  0
   -0.9304   -3.0226    2.7765 H   0  0  0  0  0  0  0  0  0  0  0  0
    0.3861   -5.4417    1.3743 H   0  0  0  0  0  0  0  0  0  0  0  0
    2.5691   -4.3843    2.6515 H   0  0  0  0  0  0  0  0  0  0  0  0
    2.6607   -4.0818   -0.1800 H   0  0  0  0  0  0  0  0  0  0  0  0
    2.2223   -6.5535   -0.4994 H   0  0  0  0  0  0  0  0  0  0  0  0
    0.5655   -6.1681   -1.0096 H   0  0  0  0  0  0  0  0  0  0  0  0
    1.6478   -4.7006   -2.5587 H   0  0  0  0  0  0  0  0  0  0  0  0
  1  2  1  0  0  0  0
  1  8  1  0  0  0  0
  2  3  2  0  0  0  0
  2  4  1  0  0  0  0
  4  5  2  0  0  0  0
  5  6  1  0  0  0  0
  5  7  1  0  0  0  0
  6 18  1  0  0  0  0
  6 19  1  0  0  0  0
  7  8  2  0  0  0  0
  7 20  1  0  0  0  0
  8 21  1  0  0  0  0
  9 10  1  0  0  0  0
  9 15  1  0  0  0  0
  9 22  1  6  0  0  0
  9  1  1  0  0  0  0
 10 11  1  0  0  0  0
 10 12  1  0  0  0  0
 10 23  1  1  0  0  0
 11 24  1  0  0  0  0
 12 13  1  0  0  0  0
 12 14  1  0  0  0  0
 12 25  1  1  0  0  0
 13 26  1  0  0  0  0
 14 15  1  0  0  0  0
 14 16  1  0  0  0  0
 14 27  1  1  0  0  0
 16 17  1  0  0  0  0
 16 28  1  0  0  0  0
 16 29  1  0  0  0  0
 17 30  1  0  0  0  0
M  END
>  <Mol_ID>
3075

>  <Formula>
C9H14ClN3O5

>  <MolWeight>
279.67756

>  <Cat>
S5582

>  <Name>
Cytarabine hydrochloride

>  <Synonyms>
N/A

>  <Target>
DNA/RNA Synthesis

>  <Form>
hydrochloride

>  <CAS>
69-74-9

>  <URL>
http://selleckchem.com/products/cytarabine-hydrochloride.html

$$$$
