S5584 Citronellol.cdx
 OpenBabel08302521383D

 31 30  0  0  0  0  0  0  0  0999 V2000
    1.0317    0.0653    0.0780 C   0  0  3  0  0  0  0  0  0  0  0  0
    0.5503    1.2775   -0.7532 C   0  0  0  0  0  0  0  0  0  0  0  0
    0.3872    0.0368    1.4861 C   0  0  0  0  0  0  0  0  0  0  0  0
    2.5588    0.0662    0.2598 C   0  0  0  0  0  0  0  0  0  0  0  0
    1.1453    1.3349   -2.1700 C   0  0  0  0  0  0  0  0  0  0  0  0
   -1.1301   -0.0974    1.5326 C   0  0  0  0  0  0  0  0  0  0  0  0
    0.7079    2.5450   -2.9491 C   0  0  0  0  0  0  0  0  0  0  0  0
   -1.5548   -1.2877    0.8871 O   0  0  0  0  0  0  0  0  0  0  0  0
    0.0408    2.5613   -4.1199 C   0  0  0  0  0  0  0  0  0  0  0  0
   -0.1941    3.8520   -4.8548 C   0  0  0  0  0  0  0  0  0  0  0  0
   -0.4773    1.3253   -4.7980 C   0  0  0  0  0  0  0  0  0  0  0  0
    0.7582   -0.8524   -0.4553 H   0  0  0  0  0  0  0  0  0  0  0  0
   -0.5430    1.2408   -0.8489 H   0  0  0  0  0  0  0  0  0  0  0  0
    0.7887    2.2074   -0.2178 H   0  0  0  0  0  0  0  0  0  0  0  0
    0.8148   -0.8148    2.0351 H   0  0  0  0  0  0  0  0  0  0  0  0
    0.6731    0.9424    2.0374 H   0  0  0  0  0  0  0  0  0  0  0  0
    2.8851   -0.8515    0.7626 H   0  0  0  0  0  0  0  0  0  0  0  0
    3.0928    0.1059   -0.6926 H   0  0  0  0  0  0  0  0  0  0  0  0
    2.8835    0.9163    0.8684 H   0  0  0  0  0  0  0  0  0  0  0  0
    2.2389    1.4037   -2.1132 H   0  0  0  0  0  0  0  0  0  0  0  0
    0.9199    0.4055   -2.7012 H   0  0  0  0  0  0  0  0  0  0  0  0
   -1.4559   -0.1545    2.5745 H   0  0  0  0  0  0  0  0  0  0  0  0
   -1.6355    0.7621    1.0817 H   0  0  0  0  0  0  0  0  0  0  0  0
    1.0286    3.4965   -2.5205 H   0  0  0  0  0  0  0  0  0  0  0  0
   -1.8014   -1.0530   -0.0254 H   0  0  0  0  0  0  0  0  0  0  0  0
    0.1857    3.7733   -5.8791 H   0  0  0  0  0  0  0  0  0  0  0  0
   -1.2644    4.0788   -4.8943 H   0  0  0  0  0  0  0  0  0  0  0  0
    0.3188    4.6966   -4.3828 H   0  0  0  0  0  0  0  0  0  0  0  0
    0.3509    0.6899   -5.1295 H   0  0  0  0  0  0  0  0  0  0  0  0
   -1.1270    0.7525   -4.1274 H   0  0  0  0  0  0  0  0  0  0  0  0
   -1.0722    1.5777   -5.6812 H   0  0  0  0  0  0  0  0  0  0  0  0
  1  2  1  0  0  0  0
  1  3  1  0  0  0  0
  1  4  1  0  0  0  0
  1 12  1  0  0  0  0
  2  5  1  0  0  0  0
  2 13  1  0  0  0  0
  2 14  1  0  0  0  0
  3  6  1  0  0  0  0
  3 15  1  0  0  0  0
  3 16  1  0  0  0  0
  4 17  1  0  0  0  0
  4 18  1  0  0  0  0
  4 19  1  0  0  0  0
  5  7  1  0  0  0  0
  5 20  1  0  0  0  0
  5 21  1  0  0  0  0
  6  8  1  0  0  0  0
  6 22  1  0  0  0  0
  6 23  1  0  0  0  0
  7  9  2  0  0  0  0
  7 24  1  0  0  0  0
  8 25  1  0  0  0  0
  9 10  1  0  0  0  0
  9 11  1  0  0  0  0
 10 26  1  0  0  0  0
 10 27  1  0  0  0  0
 10 28  1  0  0  0  0
 11 29  1  0  0  0  0
 11 30  1  0  0  0  0
 11 31  1  0  0  0  0
M  END
>  <Mol_ID>
7839

>  <Formula>
C10H20O

>  <MolWeight>
156.2652

>  <Cat>
S5584

>  <Name>
Citronellol

>  <Synonyms>
Dihydrogeraniol, (¡À)-¦Â-Citronellol

>  <Target>
Apoptosis related,Caspase,RIP kinase,ROS,TNF-alpha

>  <Form>
free base

>  <CAS>
106-22-9

>  <URL>
http://selleckchem.com/products/citronellol.html

$$$$
