S5599 Sodium cholate.cdx
 OpenBabel08302520013D

 68 71  0  0  0  0  0  0  0  0999 V2000
   -0.5076    0.1831   -0.2487 C   0  0  3  0  0  0  0  0  0  0  0  0
   -1.7302   -0.6893   -0.6613 C   0  0  3  0  0  0  0  0  0  0  0  0
    0.8679   -0.5551   -0.1615 C   0  0  3  0  0  0  0  0  0  0  0  0
   -0.4755    1.5340   -0.9752 C   0  0  3  0  0  0  0  0  0  0  0  0
   -1.7875   -2.1552   -0.0900 C   0  0  3  0  0  0  0  0  0  0  0  0
   -3.0636   -0.0413   -0.2378 C   0  0  0  0  0  0  0  0  0  0  0  0
    2.1604    0.0406   -0.8003 C   0  0  3  0  0  0  0  0  0  0  0  0
    0.7011   -2.0725   -0.4192 C   0  0  0  0  0  0  0  0  0  0  0  0
    0.7733    2.3088   -0.6037 C   0  0  0  0  0  0  0  0  0  0  0  0
   -0.6463    1.4466   -2.3755 O   0  0  0  0  0  0  0  0  0  0  0  0
   -3.0660   -2.2153    0.8469 C   0  0  3  0  0  0  0  0  0  0  0  0
   -0.4152   -2.6080    0.4604 C   0  0  3  0  0  0  0  0  0  0  0  0
   -2.0968   -3.0977   -1.3129 C   0  0  0  0  0  0  0  0  0  0  0  0
   -3.9820   -1.1951    0.1283 C   0  0  0  0  0  0  0  0  0  0  0  0
    2.1517    1.6203   -0.8071 C   0  0  3  0  0  0  0  0  0  0  0  0
    3.3977   -0.5557   -0.0239 C   0  0  0  0  0  0  0  0  0  0  0  0
    2.3382   -0.5135   -2.2441 C   0  0  0  0  0  0  0  0  0  0  0  0
   -2.8872   -1.9379    2.3792 C   0  0  3  0  0  0  0  0  0  0  0  0
   -0.0600   -2.1760    1.7692 O   0  0  0  0  0  0  0  0  0  0  0  0
    3.1079    2.3549    0.1840 C   0  0  0  0  0  0  0  0  0  0  0  0
    3.7999    0.2244    1.2096 C   0  0  0  0  0  0  0  0  0  0  0  0
   -4.2173   -1.7013    3.1444 C   0  0  0  0  0  0  0  0  0  0  0  0
   -2.1900   -3.1067    3.1195 C   0  0  0  0  0  0  0  0  0  0  0  0
    4.2862    1.5744    0.7322 C   0  0  3  0  0  0  0  0  0  0  0  0
   -4.0135   -1.2795    4.6057 C   0  0  0  0  0  0  0  0  0  0  0  0
    4.8878    2.3087    1.7946 O   0  0  0  0  0  0  0  0  0  0  0  0
   -3.2806    0.0535    4.7736 C   0  0  0  0  0  0  0  0  0  0  0  0
   -3.5167    0.9324    3.8921 O   0  0  0  0  0  0  0  0  0  0  0  0
   -2.5421    0.1296    5.7796 O   0  5  0  0  0  0  0  0  0  0  0  0
   -0.7083    0.4597    0.7998 H   0  0  0  0  0  0  0  0  0  0  0  0
   -1.7256   -0.7470   -1.7596 H   0  0  0  0  0  0  0  0  0  0  0  0
    1.1084   -0.4518    0.9054 H   0  0  0  0  0  0  0  0  0  0  0  0
   -1.3330    2.1266   -0.6230 H   0  0  0  0  0  0  0  0  0  0  0  0
   -2.9357    0.6093    0.6348 H   0  0  0  0  0  0  0  0  0  0  0  0
   -3.4882    0.5703   -1.0414 H   0  0  0  0  0  0  0  0  0  0  0  0
    1.6087   -2.6213   -0.1552 H   0  0  0  0  0  0  0  0  0  0  0  0
    0.5208   -2.2791   -1.4770 H   0  0  0  0  0  0  0  0  0  0  0  0
    0.6461    2.5604    0.4568 H   0  0  0  0  0  0  0  0  0  0  0  0
    0.7868    3.2662   -1.1423 H   0  0  0  0  0  0  0  0  0  0  0  0
    0.1121    0.9801   -2.7501 H   0  0  0  0  0  0  0  0  0  0  0  0
   -3.5346   -3.2047    0.7705 H   0  0  0  0  0  0  0  0  0  0  0  0
   -0.3718   -3.7022    0.4786 H   0  0  0  0  0  0  0  0  0  0  0  0
   -1.2935   -3.0978   -2.0564 H   0  0  0  0  0  0  0  0  0  0  0  0
   -2.2340   -4.1321   -0.9797 H   0  0  0  0  0  0  0  0  0  0  0  0
   -3.0007   -2.8032   -1.8554 H   0  0  0  0  0  0  0  0  0  0  0  0
   -4.8480   -0.8569    0.6954 H   0  0  0  0  0  0  0  0  0  0  0  0
   -4.3972   -1.6330   -0.7872 H   0  0  0  0  0  0  0  0  0  0  0  0
    2.4901    1.9171   -1.8104 H   0  0  0  0  0  0  0  0  0  0  0  0
    3.2282   -1.5900    0.2866 H   0  0  0  0  0  0  0  0  0  0  0  0
    4.2687   -0.6083   -0.6909 H   0  0  0  0  0  0  0  0  0  0  0  0
    1.4485   -0.3951   -2.8618 H   0  0  0  0  0  0  0  0  0  0  0  0
    3.1803   -0.0324   -2.7541 H   0  0  0  0  0  0  0  0  0  0  0  0
    2.5736   -1.5866   -2.2313 H   0  0  0  0  0  0  0  0  0  0  0  0
   -2.2930   -1.0227    2.4755 H   0  0  0  0  0  0  0  0  0  0  0  0
   -0.4769   -1.3163    1.9618 H   0  0  0  0  0  0  0  0  0  0  0  0
    2.5495    2.7178    1.0577 H   0  0  0  0  0  0  0  0  0  0  0  0
    3.4743    3.2731   -0.2942 H   0  0  0  0  0  0  0  0  0  0  0  0
    2.9677    0.3279    1.9183 H   0  0  0  0  0  0  0  0  0  0  0  0
    4.5915   -0.3011    1.7558 H   0  0  0  0  0  0  0  0  0  0  0  0
   -4.8280   -0.9324    2.6643 H   0  0  0  0  0  0  0  0  0  0  0  0
   -4.8079   -2.6256    3.1235 H   0  0  0  0  0  0  0  0  0  0  0  0
   -1.4069   -3.6186    2.5675 H   0  0  0  0  0  0  0  0  0  0  0  0
   -1.7342   -2.7411    4.0475 H   0  0  0  0  0  0  0  0  0  0  0  0
   -2.8990   -3.8990    3.3712 H   0  0  0  0  0  0  0  0  0  0  0  0
    5.0530    1.4562   -0.0412 H   0  0  0  0  0  0  0  0  0  0  0  0
   -4.9940   -1.1808    5.0852 H   0  0  0  0  0  0  0  0  0  0  0  0
   -3.4821   -2.0564    5.1673 H   0  0  0  0  0  0  0  0  0  0  0  0
    4.7163    1.8412    2.6308 H   0  0  0  0  0  0  0  0  0  0  0  0
  1  2  1  0  0  0  0
  1  3  1  0  0  0  0
  1  4  1  0  0  0  0
  1 30  1  0  0  0  0
  2  5  1  0  0  0  0
  2  6  1  0  0  0  0
  2 31  1  0  0  0  0
  3  7  1  0  0  0  0
  3  8  1  0  0  0  0
  3 32  1  0  0  0  0
  4  9  1  0  0  0  0
  4 10  1  0  0  0  0
  4 33  1  0  0  0  0
  5 11  1  0  0  0  0
  5 12  1  0  0  0  0
  5 13  1  0  0  0  0
  6 14  1  0  0  0  0
  6 34  1  0  0  0  0
  6 35  1  0  0  0  0
  7 15  1  0  0  0  0
  7 16  1  0  0  0  0
  7 17  1  0  0  0  0
  8 12  1  0  0  0  0
  8 36  1  0  0  0  0
  8 37  1  0  0  0  0
  9 38  1  0  0  0  0
  9 39  1  0  0  0  0
 10 40  1  0  0  0  0
 11 18  1  0  0  0  0
 11 14  1  0  0  0  0
 11 41  1  0  0  0  0
 12 19  1  0  0  0  0
 12 42  1  0  0  0  0
 13 43  1  0  0  0  0
 13 44  1  0  0  0  0
 13 45  1  0  0  0  0
 14 46  1  0  0  0  0
 14 47  1  0  0  0  0
 15  9  1  0  0  0  0
 15 20  1  0  0  0  0
 15 48  1  0  0  0  0
 16 21  1  0  0  0  0
 16 49  1  0  0  0  0
 16 50  1  0  0  0  0
 17 51  1  0  0  0  0
 17 52  1  0  0  0  0
 17 53  1  0  0  0  0
 18 22  1  0  0  0  0
 18 23  1  0  0  0  0
 18 54  1  0  0  0  0
 19 55  1  0  0  0  0
 20 24  1  0  0  0  0
 20 56  1  0  0  0  0
 20 57  1  0  0  0  0
 21 24  1  0  0  0  0
 21 58  1  0  0  0  0
 21 59  1  0  0  0  0
 22 25  1  0  0  0  0
 22 60  1  0  0  0  0
 22 61  1  0  0  0  0
 23 62  1  0  0  0  0
 23 63  1  0  0  0  0
 23 64  1  0  0  0  0
 24 26  1  0  0  0  0
 24 65  1  0  0  0  0
 25 27  1  0  0  0  0
 25 66  1  0  0  0  0
 25 67  1  0  0  0  0
 26 68  1  0  0  0  0
 27 28  2  0  0  0  0
 27 29  1  0  0  0  0
M  CHG  1  29  -1
M  END
>  <Mol_ID>
3083

>  <Formula>
C24H39NaO5

>  <MolWeight>
430.55323

>  <Cat>
S5599

>  <Name>
Sodium cholate

>  <Synonyms>
N/A

>  <Target>
Others

>  <Form>
sodium salt

>  <CAS>
361-09-1

>  <URL>
http://selleckchem.com/products/sodium-cholate.html

$$$$
