S5591 Ectoine.cdx
 OpenBabel08302521383D

 20 20  0  0  0  0  0  0  0  0999 V2000
   -0.9826    0.9929   -0.1425 C   0  0  1  0  0  0  0  0  0  0  0  0
   -1.3275   -0.4538   -0.1588 N   0  0  0  0  0  0  0  0  0  0  0  0
    0.4665    1.3477    0.1756 C   0  0  0  0  0  0  0  0  0  0  0  0
   -1.4420    1.5762   -1.4827 C   0  0  0  0  0  0  0  0  0  0  0  0
   -0.3995   -1.3174    0.0471 C   0  0  0  0  0  0  0  0  0  0  0  0
    1.4546    0.2457   -0.1367 C   0  0  0  0  0  0  0  0  0  0  0  0
   -2.1903    0.6845   -2.1846 O   0  0  0  0  0  0  0  0  0  0  0  0
   -1.2159    2.7094   -1.8779 O   0  0  0  0  0  0  0  0  0  0  0  0
    0.9166   -1.0260    0.2686 N   0  0  0  0  0  0  0  0  0  0  0  0
   -0.8097   -2.7708    0.0428 C   0  0  0  0  0  0  0  0  0  0  0  0
   -1.6271    1.4639    0.6106 H   0  0  0  0  0  0  0  0  0  0  0  0
    0.5331    1.5755    1.2471 H   0  0  0  0  0  0  0  0  0  0  0  0
    0.7816    2.2627   -0.3414 H   0  0  0  0  0  0  0  0  0  0  0  0
    1.7031    0.2235   -1.2030 H   0  0  0  0  0  0  0  0  0  0  0  0
    2.3871    0.4289    0.4104 H   0  0  0  0  0  0  0  0  0  0  0  0
   -2.2290   -0.1302   -1.6234 H   0  0  0  0  0  0  0  0  0  0  0  0
    1.5742   -1.7989    0.2303 H   0  0  0  0  0  0  0  0  0  0  0  0
   -1.4036   -2.9812    0.9360 H   0  0  0  0  0  0  0  0  0  0  0  0
   -1.4195   -2.9700   -0.8438 H   0  0  0  0  0  0  0  0  0  0  0  0
    0.0595   -3.4326    0.0325 H   0  0  0  0  0  0  0  0  0  0  0  0
  1  2  1  0  0  0  0
  1  3  1  0  0  0  0
  1 11  1  1  0  0  0
  1  4  1  0  0  0  0
  2  5  2  0  0  0  0
  3  6  1  0  0  0  0
  3 12  1  0  0  0  0
  3 13  1  0  0  0  0
  4  7  1  0  0  0  0
  4  8  2  0  0  0  0
  5  9  1  0  0  0  0
  5 10  1  0  0  0  0
  6  9  1  0  0  0  0
  6 14  1  0  0  0  0
  6 15  1  0  0  0  0
  7 16  1  0  0  0  0
  9 17  1  0  0  0  0
 10 18  1  0  0  0  0
 10 19  1  0  0  0  0
 10 20  1  0  0  0  0
M  END
>  <Mol_ID>
7873

>  <Formula>
C6H10N2O2

>  <MolWeight>
142.1558

>  <Cat>
S5591

>  <Name>
Ectoine

>  <Synonyms>
THP(B)

>  <Target>
Others

>  <Form>
free base

>  <CAS>
96702-03-3

>  <URL>
https://www.selleckchem.com/products/ectoine.html

$$$$
