S5600 Flavokawain A.cdx
 OpenBabel08302520303D

 41 42  0  0  0  0  0  0  0  0999 V2000
    0.7857   -0.2009    0.5134 C   0  0  0  0  0  0  0  0  0  0  0  0
    0.1321   -1.3885    0.0962 C   0  0  0  0  0  0  0  0  0  0  0  0
    0.1017    1.0428    0.4343 C   0  0  0  0  0  0  0  0  0  0  0  0
    2.0174    0.0671    1.0418 O   0  0  0  0  0  0  0  0  0  0  0  0
   -1.1904   -1.2243   -0.3970 C   0  0  0  0  0  0  0  0  0  0  0  0
    0.7824   -2.7459    0.1114 C   0  0  0  0  0  0  0  0  0  0  0  0
   -1.1965    1.1657   -0.0440 C   0  0  0  0  0  0  0  0  0  0  0  0
    3.0093   -0.8964    1.3094 C   0  0  0  0  0  0  0  0  0  0  0  0
   -1.8431    0.0168   -0.4582 C   0  0  0  0  0  0  0  0  0  0  0  0
   -1.9721   -2.2481   -0.8703 O   0  0  0  0  0  0  0  0  0  0  0  0
    0.0172   -4.0138    0.3261 C   0  0  0  0  0  0  0  0  0  0  0  0
    1.9921   -2.8740   -0.1295 O   0  0  0  0  0  0  0  0  0  0  0  0
   -1.7093    2.4343   -0.0522 O   0  0  0  0  0  0  0  0  0  0  0  0
    0.7063   -5.1218    0.6449 C   0  0  0  0  0  0  0  0  0  0  0  0
   -3.0372    2.5829   -0.5474 C   0  0  0  0  0  0  0  0  0  0  0  0
    0.0574   -6.4314    0.6750 C   0  0  0  0  0  0  0  0  0  0  0  0
    0.0359   -7.2159   -0.4828 C   0  0  0  0  0  0  0  0  0  0  0  0
   -0.5564   -6.8926    1.8355 C   0  0  0  0  0  0  0  0  0  0  0  0
   -0.6272   -8.4453   -0.4899 C   0  0  0  0  0  0  0  0  0  0  0  0
   -1.2117   -8.1270    1.8295 C   0  0  0  0  0  0  0  0  0  0  0  0
   -1.2562   -8.9034    0.6679 C   0  0  0  0  0  0  0  0  0  0  0  0
   -1.9379  -10.0835    0.7873 O   0  0  0  0  0  0  0  0  0  0  0  0
   -2.0149  -10.8853   -0.3857 C   0  0  0  0  0  0  0  0  0  0  0  0
    0.6137    1.9462    0.7713 H   0  0  0  0  0  0  0  0  0  0  0  0
    2.6778   -1.6065    2.0718 H   0  0  0  0  0  0  0  0  0  0  0  0
    3.3714   -1.3540    0.3906 H   0  0  0  0  0  0  0  0  0  0  0  0
    3.8794   -0.3675    1.7153 H   0  0  0  0  0  0  0  0  0  0  0  0
   -2.8549    0.0527   -0.8486 H   0  0  0  0  0  0  0  0  0  0  0  0
   -1.5588   -2.5864   -1.6836 H   0  0  0  0  0  0  0  0  0  0  0  0
   -1.0532   -4.0590    0.1612 H   0  0  0  0  0  0  0  0  0  0  0  0
    1.7748   -5.1219    0.8349 H   0  0  0  0  0  0  0  0  0  0  0  0
   -3.0912    2.3097   -1.6064 H   0  0  0  0  0  0  0  0  0  0  0  0
   -3.7485    2.0002    0.0472 H   0  0  0  0  0  0  0  0  0  0  0  0
   -3.3177    3.6370   -0.4594 H   0  0  0  0  0  0  0  0  0  0  0  0
    0.5320   -6.8800   -1.3902 H   0  0  0  0  0  0  0  0  0  0  0  0
   -0.5328   -6.3009    2.7471 H   0  0  0  0  0  0  0  0  0  0  0  0
   -0.6306   -9.0139   -1.4111 H   0  0  0  0  0  0  0  0  0  0  0  0
   -1.6921   -8.4823    2.7365 H   0  0  0  0  0  0  0  0  0  0  0  0
   -2.5953  -10.3814   -1.1664 H   0  0  0  0  0  0  0  0  0  0  0  0
   -1.0172  -11.1558   -0.7481 H   0  0  0  0  0  0  0  0  0  0  0  0
   -2.5343  -11.8125   -0.1261 H   0  0  0  0  0  0  0  0  0  0  0  0
  1  2  2  0  0  0  0
  1  3  1  0  0  0  0
  1  4  1  0  0  0  0
  2  5  1  0  0  0  0
  2  6  1  0  0  0  0
  3  7  2  0  0  0  0
  3 24  1  0  0  0  0
  4  8  1  0  0  0  0
  5  9  2  0  0  0  0
  5 10  1  0  0  0  0
  6 11  1  0  0  0  0
  6 12  2  0  0  0  0
  7 13  1  0  0  0  0
  7  9  1  0  0  0  0
  8 25  1  0  0  0  0
  8 26  1  0  0  0  0
  8 27  1  0  0  0  0
  9 28  1  0  0  0  0
 10 29  1  0  0  0  0
 11 14  2  0  0  0  0
 11 30  1  0  0  0  0
 13 15  1  0  0  0  0
 14 16  1  0  0  0  0
 14 31  1  0  0  0  0
 15 32  1  0  0  0  0
 15 33  1  0  0  0  0
 15 34  1  0  0  0  0
 16 17  2  0  0  0  0
 16 18  1  0  0  0  0
 17 19  1  0  0  0  0
 17 35  1  0  0  0  0
 18 20  2  0  0  0  0
 18 36  1  0  0  0  0
 19 21  2  0  0  0  0
 19 37  1  0  0  0  0
 20 21  1  0  0  0  0
 20 38  1  0  0  0  0
 21 22  1  0  0  0  0
 22 23  1  0  0  0  0
 23 39  1  0  0  0  0
 23 40  1  0  0  0  0
 23 41  1  0  0  0  0
M  END
>  <Mol_ID>
3250

>  <Formula>
C18H18O5

>  <MolWeight>
314.33252

>  <Cat>
S5600

>  <Name>
Flavokawain A

>  <Synonyms>
2'-HYDROXY-4, 4', 6'-TRIMETHOXYCHALCONE

>  <Target>
Bcl-2,IAP,Survivin

>  <Form>
free base

>  <CAS>
3420-72-2

>  <URL>
https://www.selleckchem.com/products/flavokawain-a.html

$$$$
