S5603 5-Bromocytosine.cdx
 OpenBabel08302520303D

 13 13  0  0  0  0  0  0  0  0999 V2000
    1.2120   -0.7002    0.0686 C   0  0  0  0  0  0  0  0  0  0  0  0
   -0.0735   -1.4743    0.0239 C   0  0  0  0  0  0  0  0  0  0  0  0
    1.2625    0.6016    0.0896 N   0  0  0  0  0  0  0  0  0  0  0  0
    2.4269   -1.3386    0.1011 N   0  0  0  0  0  0  0  0  0  0  0  0
   -1.1771   -0.7246   -0.0131 C   0  0  0  0  0  0  0  0  0  0  0  0
   -0.0695   -3.3271    0.0327 Br  0  0  0  0  0  0  0  0  0  0  0  0
    0.0984    1.3254    0.0521 C   0  0  0  0  0  0  0  0  0  0  0  0
   -1.0897    0.6367   -0.0012 N   0  0  0  0  0  0  0  0  0  0  0  0
    0.0722    2.5519    0.0686 O   0  0  0  0  0  0  0  0  0  0  0  0
    3.1870   -0.7344    0.3970 H   0  0  0  0  0  0  0  0  0  0  0  0
    2.4513   -2.2701    0.4989 H   0  0  0  0  0  0  0  0  0  0  0  0
   -2.1754   -1.1466   -0.0499 H   0  0  0  0  0  0  0  0  0  0  0  0
   -1.9171    1.2189   -0.0273 H   0  0  0  0  0  0  0  0  0  0  0  0
  1  2  1  0  0  0  0
  1  3  2  0  0  0  0
  1  4  1  0  0  0  0
  2  5  2  0  0  0  0
  2  6  1  0  0  0  0
  3  7  1  0  0  0  0
  4 10  1  0  0  0  0
  4 11  1  0  0  0  0
  5  8  1  0  0  0  0
  5 12  1  0  0  0  0
  7  9  2  0  0  0  0
  7  8  1  0  0  0  0
  8 13  1  0  0  0  0
M  END
>  <Mol_ID>
3252

>  <Formula>
C4H4BrN3O

>  <MolWeight>
189.99806

>  <Cat>
S5603

>  <Name>
5-Bromocytosine

>  <Synonyms>
TIMTEC-BB SBB000280; 5-BROMOCYTOSINE; 6-AMINO-5-BROMOPYRIMIDIN-2(1H)-ONE; 2(1H)-Pyrimidinone, 4-amino-5-bromo-; 4-amino-5-bromo-2(1h)-pyrimidinon; 4-Amino-5-bromo-2(1H)-pyrimidinone

>  <Target>
Others

>  <Form>
free base

>  <CAS>
2240-25-7

>  <URL>
https://www.selleckchem.com/products/5-bromocytosine.html

$$$$
