S5619 Betahistine.cdx
 OpenBabel08302520303D

 22 22  0  0  0  0  0  0  0  0999 V2000
   -0.6766    1.1110   -0.0125 C   0  0  0  0  0  0  0  0  0  0  0  0
   -0.7759    0.1825    1.0222 C   0  0  0  0  0  0  0  0  0  0  0  0
    0.0436   -0.9436    0.9991 C   0  0  0  0  0  0  0  0  0  0  0  0
    0.9401   -1.1117   -0.0483 C   0  0  0  0  0  0  0  0  0  0  0  0
    0.9797   -0.1419   -1.0330 C   0  0  0  0  0  0  0  0  0  0  0  0
    0.1968    0.9597   -1.0370 N   0  0  0  0  0  0  0  0  0  0  0  0
   -1.5285    2.3579   -0.0128 C   0  0  0  0  0  0  0  0  0  0  0  0
   -2.4127    2.4427   -1.2632 C   0  0  0  0  0  0  0  0  0  0  0  0
   -3.2650    3.6410   -1.2160 N   0  0  0  0  0  0  0  0  0  0  0  0
   -4.0897    3.7384   -2.4134 C   0  0  0  0  0  0  0  0  0  0  0  0
   -1.4745    0.3288    1.8407 H   0  0  0  0  0  0  0  0  0  0  0  0
   -0.0143   -1.6807    1.7951 H   0  0  0  0  0  0  0  0  0  0  0  0
    1.5940   -1.9755   -0.0954 H   0  0  0  0  0  0  0  0  0  0  0  0
    1.6657   -0.2221   -1.8723 H   0  0  0  0  0  0  0  0  0  0  0  0
   -2.1577    2.3811    0.8859 H   0  0  0  0  0  0  0  0  0  0  0  0
   -0.8645    3.2295    0.0434 H   0  0  0  0  0  0  0  0  0  0  0  0
   -1.7829    2.4731   -2.1607 H   0  0  0  0  0  0  0  0  0  0  0  0
   -3.0399    1.5445   -1.3283 H   0  0  0  0  0  0  0  0  0  0  0  0
   -3.8676    3.5994   -0.3953 H   0  0  0  0  0  0  0  0  0  0  0  0
   -4.7153    2.8496   -2.5467 H   0  0  0  0  0  0  0  0  0  0  0  0
   -4.7532    4.6049   -2.3289 H   0  0  0  0  0  0  0  0  0  0  0  0
   -3.4742    3.8818   -3.3076 H   0  0  0  0  0  0  0  0  0  0  0  0
  1  2  2  0  0  0  0
  1  6  1  0  0  0  0
  1  7  1  0  0  0  0
  2  3  1  0  0  0  0
  2 11  1  0  0  0  0
  3  4  2  0  0  0  0
  3 12  1  0  0  0  0
  4  5  1  0  0  0  0
  4 13  1  0  0  0  0
  5  6  2  0  0  0  0
  5 14  1  0  0  0  0
  7  8  1  0  0  0  0
  7 15  1  0  0  0  0
  7 16  1  0  0  0  0
  8  9  1  0  0  0  0
  8 17  1  0  0  0  0
  8 18  1  0  0  0  0
  9 10  1  0  0  0  0
  9 19  1  0  0  0  0
 10 20  1  0  0  0  0
 10 21  1  0  0  0  0
 10 22  1  0  0  0  0
M  END
>  <Mol_ID>
3261

>  <Formula>
C8H12N2

>  <MolWeight>
136.19428

>  <Cat>
S5619

>  <Name>
Betahistine

>  <Target>
Histamine Receptor

>  <Form>
free base

>  <CAS>
5638-76-6

>  <URL>
https://www.selleckchem.com/products/betahistine.html

$$$$
