S5641 Rhodamine B.cdx
 OpenBabel08302520303D

 64 67  0  0  0  0  0  0  0  0999 V2000
    0.0164   -1.5348    0.0748 C   0  0  0  0  0  0  0  0  0  0  0  0
   -1.2549   -0.7753    0.1480 C   0  0  0  0  0  0  0  0  0  0  0  0
    1.1739   -0.8168    0.0491 C   0  0  0  0  0  0  0  0  0  0  0  0
    0.0393   -3.0225    0.0220 C   0  0  0  0  0  0  0  0  0  0  0  0
   -1.2369    0.6121    0.0815 C   0  0  0  0  0  0  0  0  0  0  0  0
   -2.5009   -1.4002    0.2613 C   0  0  0  0  0  0  0  0  0  0  0  0
    1.1407    0.6458    0.0966 C   0  0  0  0  0  0  0  0  0  0  0  0
    2.4870   -1.4550   -0.0426 C   0  0  0  0  0  0  0  0  0  0  0  0
   -0.0274   -3.7678   -1.1806 C   0  0  0  0  0  0  0  0  0  0  0  0
    0.0886   -3.7015    1.2490 C   0  0  0  0  0  0  0  0  0  0  0  0
   -0.0669    1.3245    0.0844 O   0  0  0  0  0  0  0  0  0  0  0  0
   -2.4226    1.3569    0.0374 C   0  0  0  0  0  0  0  0  0  0  0  0
   -3.6834   -0.6480    0.2501 C   0  0  0  0  0  0  0  0  0  0  0  0
    2.2691    1.3710    0.1239 C   0  0  0  0  0  0  0  0  0  0  0  0
    3.6282   -0.7546   -0.0470 C   0  0  0  0  0  0  0  0  0  0  0  0
   -0.0407   -5.1720   -1.1164 C   0  0  0  0  0  0  0  0  0  0  0  0
    0.0164   -3.0974   -2.5100 C   0  0  0  0  0  0  0  0  0  0  0  0
    0.0719   -5.0932    1.2970 C   0  0  0  0  0  0  0  0  0  0  0  0
   -3.6817    0.7466    0.1033 C   0  0  0  0  0  0  0  0  0  0  0  0
    3.6272    0.7450    0.0400 C   0  0  0  0  0  0  0  0  0  0  0  0
   -0.0003   -5.8276    0.1152 C   0  0  0  0  0  0  0  0  0  0  0  0
   -0.7157   -3.7134   -3.4635 O   0  0  0  0  0  0  0  0  0  0  0  0
    0.6874   -2.1052   -2.7419 O   0  0  0  0  0  0  0  0  0  0  0  0
   -4.8568    1.4833    0.0639 N   0  0  0  0  0  0  0  0  0  0  0  0
    4.7270    1.4506    0.0192 N   0  3  0  0  0  0  0  0  0  0  0  0
   -4.9927    2.6669   -0.7942 C   0  0  0  0  0  0  0  0  0  0  0  0
   -6.0397    1.0603    0.8221 C   0  0  0  0  0  0  0  0  0  0  0  0
    6.1095    0.8378    0.0255 C   0  0  0  0  0  0  0  0  0  0  0  0
    4.7404    2.9633   -0.0223 C   0  0  0  0  0  0  0  0  0  0  0  0
   -5.3676    2.2723   -2.2164 C   0  0  0  0  0  0  0  0  0  0  0  0
   -5.7979    1.2417    2.3153 C   0  0  0  0  0  0  0  0  0  0  0  0
    6.5674    0.5668   -1.3956 C   0  0  0  0  0  0  0  0  0  0  0  0
    4.7625    3.5192    1.3893 C   0  0  0  0  0  0  0  0  0  0  0  0
   -2.5856   -2.4781    0.3604 H   0  0  0  0  0  0  0  0  0  0  0  0
    2.5490   -2.5369   -0.1582 H   0  0  0  0  0  0  0  0  0  0  0  0
    0.1364   -3.1413    2.1841 H   0  0  0  0  0  0  0  0  0  0  0  0
   -2.3403    2.4382   -0.0066 H   0  0  0  0  0  0  0  0  0  0  0  0
   -4.6185   -1.1959    0.3223 H   0  0  0  0  0  0  0  0  0  0  0  0
    2.1599    2.4461    0.1956 H   0  0  0  0  0  0  0  0  0  0  0  0
    4.5551   -1.3028   -0.1626 H   0  0  0  0  0  0  0  0  0  0  0  0
   -0.0480   -5.7776   -2.0208 H   0  0  0  0  0  0  0  0  0  0  0  0
    0.1159   -5.6055    2.2557 H   0  0  0  0  0  0  0  0  0  0  0  0
   -0.0084   -6.9149    0.1565 H   0  0  0  0  0  0  0  0  0  0  0  0
   -1.3143   -4.4214   -3.1620 H   0  0  0  0  0  0  0  0  0  0  0  0
   -5.7710    3.3293   -0.3956 H   0  0  0  0  0  0  0  0  0  0  0  0
   -4.0834    3.2740   -0.8129 H   0  0  0  0  0  0  0  0  0  0  0  0
   -6.9106    1.6639    0.5387 H   0  0  0  0  0  0  0  0  0  0  0  0
   -6.3218    0.0264    0.5975 H   0  0  0  0  0  0  0  0  0  0  0  0
    6.7895    1.5402    0.5203 H   0  0  0  0  0  0  0  0  0  0  0  0
    6.0970   -0.0678    0.6387 H   0  0  0  0  0  0  0  0  0  0  0  0
    5.6311    3.2773   -0.5774 H   0  0  0  0  0  0  0  0  0  0  0  0
    3.8795    3.3182   -0.5946 H   0  0  0  0  0  0  0  0  0  0  0  0
   -6.3421    1.7737   -2.2443 H   0  0  0  0  0  0  0  0  0  0  0  0
   -5.4265    3.1629   -2.8508 H   0  0  0  0  0  0  0  0  0  0  0  0
   -4.6286    1.5935   -2.6542 H   0  0  0  0  0  0  0  0  0  0  0  0
   -5.5489    2.2836    2.5444 H   0  0  0  0  0  0  0  0  0  0  0  0
   -6.6911    0.9680    2.8841 H   0  0  0  0  0  0  0  0  0  0  0  0
   -4.9702    0.6180    2.6689 H   0  0  0  0  0  0  0  0  0  0  0  0
    6.6964    1.4992   -1.9559 H   0  0  0  0  0  0  0  0  0  0  0  0
    7.5322    0.0497   -1.3847 H   0  0  0  0  0  0  0  0  0  0  0  0
    5.8570   -0.0564   -1.9480 H   0  0  0  0  0  0  0  0  0  0  0  0
    5.6773    3.2297    1.9173 H   0  0  0  0  0  0  0  0  0  0  0  0
    4.7268    4.6128    1.3605 H   0  0  0  0  0  0  0  0  0  0  0  0
    3.9118    3.1689    1.9825 H   0  0  0  0  0  0  0  0  0  0  0  0
  1  2  1  0  0  0  0
  1  3  2  0  0  0  0
  1  4  1  0  0  0  0
  2  5  1  0  0  0  0
  2  6  2  0  0  0  0
  3  7  1  0  0  0  0
  3  8  1  0  0  0  0
  4  9  2  0  0  0  0
  4 10  1  0  0  0  0
  5 11  1  0  0  0  0
  5 12  2  0  0  0  0
  6 13  1  0  0  0  0
  6 34  1  0  0  0  0
  7 14  2  0  0  0  0
  7 11  1  0  0  0  0
  8 15  2  0  0  0  0
  8 35  1  0  0  0  0
  9 16  1  0  0  0  0
  9 17  1  0  0  0  0
 10 18  2  0  0  0  0
 10 36  1  0  0  0  0
 12 19  1  0  0  0  0
 12 37  1  0  0  0  0
 13 19  2  0  0  0  0
 13 38  1  0  0  0  0
 14 20  1  0  0  0  0
 14 39  1  0  0  0  0
 15 20  1  0  0  0  0
 15 40  1  0  0  0  0
 16 21  2  0  0  0  0
 16 41  1  0  0  0  0
 17 22  1  0  0  0  0
 17 23  2  0  0  0  0
 18 21  1  0  0  0  0
 18 42  1  0  0  0  0
 19 24  1  0  0  0  0
 20 25  2  0  0  0  0
 21 43  1  0  0  0  0
 22 44  1  0  0  0  0
 24 26  1  0  0  0  0
 24 27  1  0  0  0  0
 25 28  1  0  0  0  0
 25 29  1  0  0  0  0
 26 30  1  0  0  0  0
 26 45  1  0  0  0  0
 26 46  1  0  0  0  0
 27 31  1  0  0  0  0
 27 47  1  0  0  0  0
 27 48  1  0  0  0  0
 28 32  1  0  0  0  0
 28 49  1  0  0  0  0
 28 50  1  0  0  0  0
 29 33  1  0  0  0  0
 29 51  1  0  0  0  0
 29 52  1  0  0  0  0
 30 53  1  0  0  0  0
 30 54  1  0  0  0  0
 30 55  1  0  0  0  0
 31 56  1  0  0  0  0
 31 57  1  0  0  0  0
 31 58  1  0  0  0  0
 32 59  1  0  0  0  0
 32 60  1  0  0  0  0
 32 61  1  0  0  0  0
 33 62  1  0  0  0  0
 33 63  1  0  0  0  0
 33 64  1  0  0  0  0
M  CHG  1  25   1
M  END
>  <Mol_ID>
3264

>  <Formula>
C28H31ClN2O3

>  <MolWeight>
479.01034

>  <Cat>
S5641

>  <Name>
Rhodamine B

>  <Target>
Dyes

>  <Form>
xanthene dyes

>  <CAS>
81-88-9

>  <URL>
https://www.selleckchem.com/products/rhodamine-b.html

$$$$
