S5642 Homovanillic acid.cdx
 OpenBabel08302520303D

 23 23  0  0  0  0  0  0  0  0999 V2000
   -1.2648   -1.1470    0.0582 C   0  0  0  0  0  0  0  0  0  0  0  0
    0.1426   -1.2090    0.0399 C   0  0  0  0  0  0  0  0  0  0  0  0
   -1.9022    0.1036    0.0351 C   0  0  0  0  0  0  0  0  0  0  0  0
   -2.0852   -2.4205    0.0431 C   0  0  0  0  0  0  0  0  0  0  0  0
    0.9019   -0.0388    0.0164 C   0  0  0  0  0  0  0  0  0  0  0  0
   -1.1513    1.2737   -0.0075 C   0  0  0  0  0  0  0  0  0  0  0  0
   -2.3821   -2.9683   -1.3375 C   0  0  0  0  0  0  0  0  0  0  0  0
    0.2345    1.1948   -0.0080 C   0  0  0  0  0  0  0  0  0  0  0  0
    2.2685    0.0450    0.0054 O   0  0  0  0  0  0  0  0  0  0  0  0
   -2.5398   -2.0497   -2.3164 O   0  0  0  0  0  0  0  0  0  0  0  0
   -2.5435   -4.1620   -1.5548 O   0  0  0  0  0  0  0  0  0  0  0  0
    0.9462    2.3624   -0.0303 O   0  0  0  0  0  0  0  0  0  0  0  0
    2.9832   -1.1847    0.0359 C   0  0  0  0  0  0  0  0  0  0  0  0
    0.6215   -2.1852    0.0500 H   0  0  0  0  0  0  0  0  0  0  0  0
   -2.9887    0.1764    0.0359 H   0  0  0  0  0  0  0  0  0  0  0  0
   -1.5457   -3.1906    0.6083 H   0  0  0  0  0  0  0  0  0  0  0  0
   -3.0376   -2.2556    0.5578 H   0  0  0  0  0  0  0  0  0  0  0  0
   -1.6381    2.2464   -0.0397 H   0  0  0  0  0  0  0  0  0  0  0  0
   -2.3750   -1.1270   -2.0441 H   0  0  0  0  0  0  0  0  0  0  0  0
    1.8834    2.0884    0.0133 H   0  0  0  0  0  0  0  0  0  0  0  0
    2.7762   -1.7374    0.9584 H   0  0  0  0  0  0  0  0  0  0  0  0
    2.7634   -1.7920   -0.8484 H   0  0  0  0  0  0  0  0  0  0  0  0
    4.0523   -0.9502    0.0207 H   0  0  0  0  0  0  0  0  0  0  0  0
  1  2  2  0  0  0  0
  1  3  1  0  0  0  0
  1  4  1  0  0  0  0
  2  5  1  0  0  0  0
  2 14  1  0  0  0  0
  3  6  2  0  0  0  0
  3 15  1  0  0  0  0
  4  7  1  0  0  0  0
  4 16  1  0  0  0  0
  4 17  1  0  0  0  0
  5  8  2  0  0  0  0
  5  9  1  0  0  0  0
  6  8  1  0  0  0  0
  6 18  1  0  0  0  0
  7 10  1  0  0  0  0
  7 11  2  0  0  0  0
  8 12  1  0  0  0  0
  9 13  1  0  0  0  0
 10 19  1  0  0  0  0
 12 20  1  0  0  0  0
 13 21  1  0  0  0  0
 13 22  1  0  0  0  0
 13 23  1  0  0  0  0
M  END
>  <Mol_ID>
3308

>  <Formula>
C9H10O4

>  <MolWeight>
182.1733

>  <Cat>
S5642

>  <Name>
Homovanillic acid

>  <Synonyms>
Vanillacetic acid

>  <Target>
Others

>  <Form>
Dopamine

>  <CAS>
306-08-1

>  <URL>
https://www.selleckchem.com/products/homovanillic-acid.html

$$$$
