S5659 Emedastine.cdx
 OpenBabel08302520303D

 48 50  0  0  0  0  0  0  0  0999 V2000
    2.3690   -0.0708   -0.0397 C   0  0  0  0  0  0  0  0  0  0  0  0
    1.5074   -1.1330   -0.2523 N   0  0  0  0  0  0  0  0  0  0  0  0
    3.7049   -0.2529    0.1356 N   0  0  0  0  0  0  0  0  0  0  0  0
    1.6900    1.0497    0.0887 N   0  0  0  0  0  0  0  0  0  0  0  0
    0.2363   -0.6262   -0.4225 C   0  0  0  0  0  0  0  0  0  0  0  0
    1.8199   -2.5470   -0.1422 C   0  0  0  0  0  0  0  0  0  0  0  0
    4.4158    0.7050    0.9887 C   0  0  0  0  0  0  0  0  0  0  0  0
    4.5112   -0.7625   -0.9761 C   0  0  0  0  0  0  0  0  0  0  0  0
    0.3746    0.7254   -0.1315 C   0  0  0  0  0  0  0  0  0  0  0  0
   -0.9970   -1.2128   -0.7359 C   0  0  0  0  0  0  0  0  0  0  0  0
    2.2741   -2.9896    1.2510 C   0  0  0  0  0  0  0  0  0  0  0  0
    5.1809   -0.0941    2.0383 C   0  0  0  0  0  0  0  0  0  0  0  0
    5.5667   -1.7652   -0.4596 C   0  0  0  0  0  0  0  0  0  0  0  0
   -0.7708    1.5357   -0.0859 C   0  0  0  0  0  0  0  0  0  0  0  0
   -2.1257   -0.3896   -0.6911 C   0  0  0  0  0  0  0  0  0  0  0  0
    1.2670   -2.7237    2.2256 O   0  0  0  0  0  0  0  0  0  0  0  0
    6.5128   -0.7032    1.5804 C   0  0  0  0  0  0  0  0  0  0  0  0
    6.7191   -1.1144    0.1827 N   0  0  0  0  0  0  0  0  0  0  0  0
   -2.0201    0.9598   -0.3536 C   0  0  0  0  0  0  0  0  0  0  0  0
    1.5717   -3.2147    3.5303 C   0  0  0  0  0  0  0  0  0  0  0  0
    7.9027   -1.9771    0.0977 C   0  0  0  0  0  0  0  0  0  0  0  0
    2.7850   -2.5534    4.1638 C   0  0  0  0  0  0  0  0  0  0  0  0
    0.9247   -3.1115   -0.4171 H   0  0  0  0  0  0  0  0  0  0  0  0
    2.5810   -2.7836   -0.8897 H   0  0  0  0  0  0  0  0  0  0  0  0
    5.0799    1.3595    0.4107 H   0  0  0  0  0  0  0  0  0  0  0  0
    3.7146    1.3621    1.5184 H   0  0  0  0  0  0  0  0  0  0  0  0
    3.8904   -1.2666   -1.7254 H   0  0  0  0  0  0  0  0  0  0  0  0
    4.9986    0.0629   -1.5128 H   0  0  0  0  0  0  0  0  0  0  0  0
   -1.0892   -2.2645   -0.9839 H   0  0  0  0  0  0  0  0  0  0  0  0
    2.4651   -4.0683    1.2267 H   0  0  0  0  0  0  0  0  0  0  0  0
    3.2004   -2.4880    1.5308 H   0  0  0  0  0  0  0  0  0  0  0  0
    5.3885    0.5604    2.8916 H   0  0  0  0  0  0  0  0  0  0  0  0
    4.5412   -0.8950    2.4191 H   0  0  0  0  0  0  0  0  0  0  0  0
    5.9128   -2.3103   -1.3480 H   0  0  0  0  0  0  0  0  0  0  0  0
    5.1188   -2.5142    0.2040 H   0  0  0  0  0  0  0  0  0  0  0  0
   -0.6816    2.5851    0.1723 H   0  0  0  0  0  0  0  0  0  0  0  0
   -3.1030   -0.8163   -0.9059 H   0  0  0  0  0  0  0  0  0  0  0  0
    7.2972    0.0301    1.8116 H   0  0  0  0  0  0  0  0  0  0  0  0
    6.6986   -1.5553    2.2495 H   0  0  0  0  0  0  0  0  0  0  0  0
   -2.9163    1.5713   -0.2949 H   0  0  0  0  0  0  0  0  0  0  0  0
    0.6953   -3.0070    4.1531 H   0  0  0  0  0  0  0  0  0  0  0  0
    1.6948   -4.3018    3.4957 H   0  0  0  0  0  0  0  0  0  0  0  0
    7.7493   -2.9344    0.6137 H   0  0  0  0  0  0  0  0  0  0  0  0
    8.1539   -2.1871   -0.9469 H   0  0  0  0  0  0  0  0  0  0  0  0
    8.7755   -1.4843    0.5348 H   0  0  0  0  0  0  0  0  0  0  0  0
    2.7580   -1.4673    4.0309 H   0  0  0  0  0  0  0  0  0  0  0  0
    2.8329   -2.7800    5.2332 H   0  0  0  0  0  0  0  0  0  0  0  0
    3.7119   -2.9187    3.7095 H   0  0  0  0  0  0  0  0  0  0  0  0
  1  2  1  0  0  0  0
  1  3  1  0  0  0  0
  1  4  2  0  0  0  0
  2  5  1  0  0  0  0
  2  6  1  0  0  0  0
  3  7  1  0  0  0  0
  3  8  1  0  0  0  0
  4  9  1  0  0  0  0
  5 10  2  0  0  0  0
  5  9  1  0  0  0  0
  6 11  1  0  0  0  0
  6 23  1  0  0  0  0
  6 24  1  0  0  0  0
  7 12  1  0  0  0  0
  7 25  1  0  0  0  0
  7 26  1  0  0  0  0
  8 13  1  0  0  0  0
  8 27  1  0  0  0  0
  8 28  1  0  0  0  0
  9 14  2  0  0  0  0
 10 15  1  0  0  0  0
 10 29  1  0  0  0  0
 11 16  1  0  0  0  0
 11 30  1  0  0  0  0
 11 31  1  0  0  0  0
 12 17  1  0  0  0  0
 12 32  1  0  0  0  0
 12 33  1  0  0  0  0
 13 18  1  0  0  0  0
 13 34  1  0  0  0  0
 13 35  1  0  0  0  0
 14 19  1  0  0  0  0
 14 36  1  0  0  0  0
 15 19  2  0  0  0  0
 15 37  1  0  0  0  0
 16 20  1  0  0  0  0
 17 18  1  0  0  0  0
 17 38  1  0  0  0  0
 17 39  1  0  0  0  0
 18 21  1  0  0  0  0
 19 40  1  0  0  0  0
 20 22  1  0  0  0  0
 20 41  1  0  0  0  0
 20 42  1  0  0  0  0
 21 43  1  0  0  0  0
 21 44  1  0  0  0  0
 21 45  1  0  0  0  0
 22 46  1  0  0  0  0
 22 47  1  0  0  0  0
 22 48  1  0  0  0  0
M  END
>  <Mol_ID>
3296

>  <Formula>
C17H26N4O

>  <MolWeight>
302.41454

>  <Cat>
S5659

>  <Name>
Emedastine

>  <Synonyms>
N/A

>  <Target>
Histamine Receptor

>  <Form>
free base

>  <CAS>
87233-61-2

>  <URL>
http://selleckchem.com/products/emedastine.html

$$$$
