S5667 Fruquintinib.cdx
 OpenBabel08302520303D

 48 51  0  0  0  0  0  0  0  0999 V2000
    1.1473    1.0754   -0.0085 O   0  0  0  0  0  0  0  0  0  0  0  0
    1.9462   -0.0293   -0.1025 C   0  0  0  0  0  0  0  0  0  0  0  0
    1.1709   -1.1875   -0.0822 C   0  0  0  0  0  0  0  0  0  0  0  0
   -0.1996   -0.7152   -0.0152 C   0  0  0  0  0  0  0  0  0  0  0  0
   -0.1423    0.6662    0.0253 C   0  0  0  0  0  0  0  0  0  0  0  0
   -1.4806   -1.3078   -0.0079 C   0  0  0  0  0  0  0  0  0  0  0  0
   -2.6209   -0.4845    0.0280 C   0  0  0  0  0  0  0  0  0  0  0  0
   -2.5109    0.9088    0.0851 C   0  0  0  0  0  0  0  0  0  0  0  0
   -1.2480    1.5151    0.0718 C   0  0  0  0  0  0  0  0  0  0  0  0
    1.5406   -2.6075   -0.1446 C   0  0  0  0  0  0  0  0  0  0  0  0
    0.6886   -3.4821   -0.1011 O   0  0  0  0  0  0  0  0  0  0  0  0
    2.8737   -2.9309   -0.2559 N   0  0  0  0  0  0  0  0  0  0  0  0
    3.3753    0.3480   -0.2119 C   0  0  0  0  0  0  0  0  0  0  0  0
    3.3077   -4.3105   -0.2700 C   0  0  0  0  0  0  0  0  0  0  0  0
   -3.7006    1.6176    0.0551 O   0  0  0  0  0  0  0  0  0  0  0  0
   -3.7774    5.2381    1.9610 N   0  0  0  0  0  0  0  0  0  0  0  0
   -3.1213    4.1690    2.4375 C   0  0  0  0  0  0  0  0  0  0  0  0
   -3.0771    2.9598    1.8743 N   0  0  0  0  0  0  0  0  0  0  0  0
   -3.7624    2.8390    0.7220 C   0  0  0  0  0  0  0  0  0  0  0  0
   -4.5423    3.8654    0.1588 C   0  0  0  0  0  0  0  0  0  0  0  0
   -5.3231    3.7665   -1.0125 C   0  0  0  0  0  0  0  0  0  0  0  0
   -5.9925    4.8679   -1.5877 C   0  0  0  0  0  0  0  0  0  0  0  0
   -5.8700    6.1089   -0.9556 C   0  0  0  0  0  0  0  0  0  0  0  0
   -5.1319    6.1742    0.2532 C   0  0  0  0  0  0  0  0  0  0  0  0
   -4.4823    5.0849    0.8260 C   0  0  0  0  0  0  0  0  0  0  0  0
   -6.1366    7.3420   -1.4821 O   0  0  0  0  0  0  0  0  0  0  0  0
   -7.4843    7.7162   -1.7193 C   0  0  0  0  0  0  0  0  0  0  0  0
   -6.5986    4.4651   -2.7356 O   0  0  0  0  0  0  0  0  0  0  0  0
   -7.3267    5.3289   -3.5746 C   0  0  0  0  0  0  0  0  0  0  0  0
   -1.5902   -2.3884   -0.0480 H   0  0  0  0  0  0  0  0  0  0  0  0
   -3.6048   -0.9493    0.0075 H   0  0  0  0  0  0  0  0  0  0  0  0
   -1.1106    2.5884    0.0882 H   0  0  0  0  0  0  0  0  0  0  0  0
    3.5814   -2.2283   -0.1604 H   0  0  0  0  0  0  0  0  0  0  0  0
    3.4867    1.1371   -0.9643 H   0  0  0  0  0  0  0  0  0  0  0  0
    3.7298    0.7545    0.7415 H   0  0  0  0  0  0  0  0  0  0  0  0
    4.0398   -0.4600   -0.5114 H   0  0  0  0  0  0  0  0  0  0  0  0
    4.2321   -4.3813   -0.8484 H   0  0  0  0  0  0  0  0  0  0  0  0
    3.4970   -4.6241    0.7600 H   0  0  0  0  0  0  0  0  0  0  0  0
    2.5488   -4.9617   -0.7137 H   0  0  0  0  0  0  0  0  0  0  0  0
   -2.5540    4.2996    3.3514 H   0  0  0  0  0  0  0  0  0  0  0  0
   -5.3808    2.8081   -1.5290 H   0  0  0  0  0  0  0  0  0  0  0  0
   -5.0265    7.1424    0.7498 H   0  0  0  0  0  0  0  0  0  0  0  0
   -7.6421    7.7592   -2.8000 H   0  0  0  0  0  0  0  0  0  0  0  0
   -8.2228    7.0695   -1.2375 H   0  0  0  0  0  0  0  0  0  0  0  0
   -7.6340    8.7434   -1.3697 H   0  0  0  0  0  0  0  0  0  0  0  0
   -8.2451    5.6668   -3.0904 H   0  0  0  0  0  0  0  0  0  0  0  0
   -6.7036    6.1449   -3.9468 H   0  0  0  0  0  0  0  0  0  0  0  0
   -7.6432    4.7429   -4.4437 H   0  0  0  0  0  0  0  0  0  0  0  0
  1  2  1  0  0  0  0
  1  5  1  0  0  0  0
  2  3  2  0  0  0  0
  2 13  1  0  0  0  0
  3  4  1  0  0  0  0
  3 10  1  0  0  0  0
  4  5  2  0  0  0  0
  6  7  2  0  0  0  0
  6  4  1  0  0  0  0
  6 30  1  0  0  0  0
  7  8  1  0  0  0  0
  7 31  1  0  0  0  0
  8  9  2  0  0  0  0
  8 15  1  0  0  0  0
  9  5  1  0  0  0  0
  9 32  1  0  0  0  0
 10 11  2  0  0  0  0
 10 12  1  0  0  0  0
 12 14  1  0  0  0  0
 12 33  1  0  0  0  0
 13 34  1  0  0  0  0
 13 35  1  0  0  0  0
 13 36  1  0  0  0  0
 14 37  1  0  0  0  0
 14 38  1  0  0  0  0
 14 39  1  0  0  0  0
 15 19  1  0  0  0  0
 16 17  2  0  0  0  0
 16 25  1  0  0  0  0
 17 18  1  0  0  0  0
 17 40  1  0  0  0  0
 18 19  2  0  0  0  0
 19 20  1  0  0  0  0
 20 21  1  0  0  0  0
 20 25  2  0  0  0  0
 21 22  2  0  0  0  0
 21 41  1  0  0  0  0
 22 23  1  0  0  0  0
 22 28  1  0  0  0  0
 23 24  2  0  0  0  0
 23 26  1  0  0  0  0
 24 25  1  0  0  0  0
 24 42  1  0  0  0  0
 26 27  1  0  0  0  0
 27 43  1  0  0  0  0
 27 44  1  0  0  0  0
 27 45  1  0  0  0  0
 28 29  1  0  0  0  0
 29 46  1  0  0  0  0
 29 47  1  0  0  0  0
 29 48  1  0  0  0  0
M  END
>  <Mol_ID>
3309

>  <Formula>
C21H19N3O5

>  <MolWeight>
393.39266

>  <Cat>
S5667

>  <Name>
Fruquintinib (HMPL-013)

>  <Target>
VEGFR

>  <Form>
Tyrosine kinase inhibitor

>  <CAS>
1194506-26-7

>  <URL>
https://www.selleckchem.com/products/fruquintinib.html

$$$$
