S5672 Hydroxyhexamide.cdx
 OpenBabel08302520143D

 44 45  0  0  0  0  0  0  0  0999 V2000
    1.0146    0.0987    0.1515 S   0  0  0  0  0  0  0  0  0  0  0  0
   -0.2476   -0.9038   -0.5998 C   0  0  0  0  0  0  0  0  0  0  0  0
    0.2381    0.7116    1.4928 N   0  0  0  0  0  0  0  0  0  0  0  0
    1.3838    1.1514   -0.7658 O   0  0  0  0  0  0  0  0  0  0  0  0
    2.0206   -0.8031    0.6776 O   0  0  0  0  0  0  0  0  0  0  0  0
   -1.1202   -0.3501   -1.5360 C   0  0  0  0  0  0  0  0  0  0  0  0
   -0.3153   -2.2652   -0.2908 C   0  0  0  0  0  0  0  0  0  0  0  0
   -0.6041    1.8086    1.4813 C   0  0  0  0  0  0  0  0  0  0  0  0
   -2.0901   -1.1602   -2.1386 C   0  0  0  0  0  0  0  0  0  0  0  0
   -1.2810   -3.0704   -0.9011 C   0  0  0  0  0  0  0  0  0  0  0  0
   -1.0743    2.1431    2.7217 N   0  0  0  0  0  0  0  0  0  0  0  0
   -0.9144    2.4044    0.4619 O   0  0  0  0  0  0  0  0  0  0  0  0
   -2.1882   -2.5291   -1.8272 C   0  0  0  0  0  0  0  0  0  0  0  0
   -1.9692    3.2810    2.8972 C   0  0  0  0  0  0  0  0  0  0  0  0
   -3.2586   -3.3778   -2.4870 C   0  0  3  0  0  0  0  0  0  0  0  0
   -1.9622    3.7893    4.3441 C   0  0  0  0  0  0  0  0  0  0  0  0
   -3.4035    2.9565    2.4561 C   0  0  0  0  0  0  0  0  0  0  0  0
   -2.6939   -4.5378   -3.3005 C   0  0  0  0  0  0  0  0  0  0  0  0
   -4.1506   -3.9011   -1.5042 O   0  0  0  0  0  0  0  0  0  0  0  0
   -2.8574    5.0208    4.4909 C   0  0  0  0  0  0  0  0  0  0  0  0
   -4.3079    4.1806    2.5960 C   0  0  0  0  0  0  0  0  0  0  0  0
   -4.2811    4.7485    4.0123 C   0  0  0  0  0  0  0  0  0  0  0  0
    0.5980    0.3352    2.3603 H   0  0  0  0  0  0  0  0  0  0  0  0
   -1.0555    0.7049   -1.8002 H   0  0  0  0  0  0  0  0  0  0  0  0
    0.3817   -2.7102    0.4158 H   0  0  0  0  0  0  0  0  0  0  0  0
   -2.7715   -0.7123   -2.8605 H   0  0  0  0  0  0  0  0  0  0  0  0
   -1.3114   -4.1281   -0.6485 H   0  0  0  0  0  0  0  0  0  0  0  0
   -0.9660    1.4819    3.4756 H   0  0  0  0  0  0  0  0  0  0  0  0
   -1.5849    4.0833    2.2528 H   0  0  0  0  0  0  0  0  0  0  0  0
   -3.8667   -2.7569   -3.1545 H   0  0  0  0  0  0  0  0  0  0  0  0
   -2.3087    3.0009    5.0241 H   0  0  0  0  0  0  0  0  0  0  0  0
   -0.9402    4.0414    4.6523 H   0  0  0  0  0  0  0  0  0  0  0  0
   -3.4195    2.6157    1.4157 H   0  0  0  0  0  0  0  0  0  0  0  0
   -3.8032    2.1308    3.0597 H   0  0  0  0  0  0  0  0  0  0  0  0
   -2.1260   -5.2352   -2.6751 H   0  0  0  0  0  0  0  0  0  0  0  0
   -3.5098   -5.1195   -3.7450 H   0  0  0  0  0  0  0  0  0  0  0  0
   -2.0410   -4.1823   -4.1036 H   0  0  0  0  0  0  0  0  0  0  0  0
   -3.6176   -4.2774   -0.7860 H   0  0  0  0  0  0  0  0  0  0  0  0
   -2.8752    5.3465    5.5367 H   0  0  0  0  0  0  0  0  0  0  0  0
   -2.4316    5.8484    3.9077 H   0  0  0  0  0  0  0  0  0  0  0  0
   -5.3348    3.9150    2.3231 H   0  0  0  0  0  0  0  0  0  0  0  0
   -3.9804    4.9533    1.8887 H   0  0  0  0  0  0  0  0  0  0  0  0
   -4.7653    4.0413    4.6963 H   0  0  0  0  0  0  0  0  0  0  0  0
   -4.8648    5.6756    4.0464 H   0  0  0  0  0  0  0  0  0  0  0  0
  1  2  1  0  0  0  0
  1  3  1  0  0  0  0
  1  4  2  0  0  0  0
  1  5  2  0  0  0  0
  2  6  2  0  0  0  0
  2  7  1  0  0  0  0
  3  8  1  0  0  0  0
  3 23  1  0  0  0  0
  6  9  1  0  0  0  0
  6 24  1  0  0  0  0
  7 10  2  0  0  0  0
  7 25  1  0  0  0  0
  8 11  1  0  0  0  0
  8 12  2  0  0  0  0
  9 13  2  0  0  0  0
  9 26  1  0  0  0  0
 10 13  1  0  0  0  0
 10 27  1  0  0  0  0
 11 14  1  0  0  0  0
 11 28  1  0  0  0  0
 13 15  1  0  0  0  0
 14 16  1  0  0  0  0
 14 17  1  0  0  0  0
 14 29  1  0  0  0  0
 15 18  1  0  0  0  0
 15 19  1  0  0  0  0
 15 30  1  0  0  0  0
 16 20  1  0  0  0  0
 16 31  1  0  0  0  0
 16 32  1  0  0  0  0
 17 21  1  0  0  0  0
 17 33  1  0  0  0  0
 17 34  1  0  0  0  0
 18 35  1  0  0  0  0
 18 36  1  0  0  0  0
 18 37  1  0  0  0  0
 19 38  1  0  0  0  0
 20 22  1  0  0  0  0
 20 39  1  0  0  0  0
 20 40  1  0  0  0  0
 21 22  1  0  0  0  0
 21 41  1  0  0  0  0
 21 42  1  0  0  0  0
 22 43  1  0  0  0  0
 22 44  1  0  0  0  0
M  END
>  <Mol_ID>
3143

>  <Formula>
C15H22N2O4S

>  <MolWeight>
326.41118

>  <Cat>
S5672

>  <Name>
Hydroxyhexamide

>  <Target>
Others

>  <Form>
free base

>  <CAS>
3168-01-2

>  <URL>
https://www.selleckchem.com/products/hydroxyhexamide.html

$$$$
