S5680 (-)-Verbenone.cdx
 OpenBabel08302520303D

 25 26  0  0  0  0  0  0  0  0999 V2000
   -0.9877   -0.0339    1.1924 C   0  0  0  0  0  0  0  0  0  0  0  0
   -0.5218   -1.0547    0.0570 C   0  0  2  0  0  0  0  0  0  0  0  0
    0.9865   -1.1693   -0.0906 C   0  0  0  0  0  0  0  0  0  0  0  0
    1.7075   -0.0318   -0.1816 C   0  0  0  0  0  0  0  0  0  0  0  0
    0.9623    1.2645   -0.0779 C   0  0  0  0  0  0  0  0  0  0  0  0
   -0.5988    1.0494    0.0866 C   0  0  1  0  0  0  0  0  0  0  0  0
   -2.4795   -0.0845    1.5697 C   0  0  0  0  0  0  0  0  0  0  0  0
   -0.1822   -0.0137    2.4994 C   0  0  0  0  0  0  0  0  0  0  0  0
    1.5755    2.3251   -0.1242 O   0  0  0  0  0  0  0  0  0  0  0  0
    1.5913   -2.5349   -0.0858 C   0  0  0  0  0  0  0  0  0  0  0  0
   -1.1081   -0.0087   -0.9595 C   0  0  0  0  0  0  0  0  0  0  0  0
   -1.0258   -2.0261    0.0570 H   0  0  0  0  0  0  0  0  0  0  0  0
    2.7833    0.0134   -0.2771 H   0  0  0  0  0  0  0  0  0  0  0  0
   -1.1663    1.9832    0.1178 H   0  0  0  0  0  0  0  0  0  0  0  0
   -2.6991   -0.9943    2.1396 H   0  0  0  0  0  0  0  0  0  0  0  0
   -2.7451    0.7766    2.1935 H   0  0  0  0  0  0  0  0  0  0  0  0
   -3.1525   -0.0752    0.7093 H   0  0  0  0  0  0  0  0  0  0  0  0
    0.8988   -0.0666    2.3556 H   0  0  0  0  0  0  0  0  0  0  0  0
   -0.3852    0.9053    3.0591 H   0  0  0  0  0  0  0  0  0  0  0  0
   -0.4572   -0.8639    3.1336 H   0  0  0  0  0  0  0  0  0  0  0  0
    1.2762   -3.0838    0.8090 H   0  0  0  0  0  0  0  0  0  0  0  0
    1.2724   -3.0976   -0.9687 H   0  0  0  0  0  0  0  0  0  0  0  0
    2.6854   -2.4954   -0.0825 H   0  0  0  0  0  0  0  0  0  0  0  0
   -0.6389    0.0282   -1.9492 H   0  0  0  0  0  0  0  0  0  0  0  0
   -2.1892   -0.0445   -1.1223 H   0  0  0  0  0  0  0  0  0  0  0  0
  1  2  1  0  0  0  0
  1  7  1  0  0  0  0
  1  8  1  0  0  0  0
  2  3  1  0  0  0  0
  2 11  1  0  0  0  0
  2 12  1  1  0  0  0
  3  4  2  0  0  0  0
  3 10  1  0  0  0  0
  4  5  1  0  0  0  0
  4 13  1  0  0  0  0
  5  6  1  0  0  0  0
  5  9  2  0  0  0  0
  6  1  1  0  0  0  0
  6 11  1  0  0  0  0
  6 14  1  1  0  0  0
  7 15  1  0  0  0  0
  7 16  1  0  0  0  0
  7 17  1  0  0  0  0
  8 18  1  0  0  0  0
  8 19  1  0  0  0  0
  8 20  1  0  0  0  0
 10 21  1  0  0  0  0
 10 22  1  0  0  0  0
 10 23  1  0  0  0  0
 11 24  1  0  0  0  0
 11 25  1  0  0  0  0
M  END
>  <Mol_ID>
3271

>  <Formula>
C10H14O

>  <MolWeight>
150.21756

>  <Cat>
S5680

>  <Name>
(-)-Verbenone

>  <Synonyms>
2-Pinen-4-one

>  <Target>
Others

>  <Form>
free base

>  <CAS>
1196-01-6

>  <URL>
https://www.selleckchem.com/products/verbenone.html

$$$$
