S5706 Edetate Trisodium.cdx
 OpenBabel08302521383D

 33 32  0  0  0  0  0  0  0  0999 V2000
    1.1217    0.0104   -0.0133 N   0  0  0  0  0  0  0  0  0  0  0  0
    0.5242   -1.2584    0.4072 C   0  0  0  0  0  0  0  0  0  0  0  0
    2.5459    0.1543   -0.2579 C   0  0  0  0  0  0  0  0  0  0  0  0
    0.2830    1.2150    0.0540 C   0  0  0  0  0  0  0  0  0  0  0  0
    1.1921   -2.0609    1.5658 C   0  0  0  0  0  0  0  0  0  0  0  0
    2.9849   -0.3607   -1.6296 C   0  0  0  0  0  0  0  0  0  0  0  0
   -0.8548    1.2416   -1.0184 C   0  0  0  0  0  0  0  0  0  0  0  0
    0.3626   -3.2097    1.9999 N   0  0  0  0  0  0  0  0  0  0  0  0
    1.9721   -0.6777   -2.4690 O   0  0  0  0  0  0  0  0  0  0  0  0
    4.1637   -0.3689   -1.9908 O   0  0  0  0  0  0  0  0  0  0  0  0
   -1.6739    2.1936   -0.8897 O   0  0  0  0  0  0  0  0  0  0  0  0
   -0.7831    0.3772   -1.9405 O   0  5  0  0  0  0  0  0  0  0  0  0
    0.1622   -4.2384    0.9314 C   0  0  0  0  0  0  0  0  0  0  0  0
    0.8647   -3.8476    3.2517 C   0  0  0  0  0  0  0  0  0  0  0  0
    1.4582   -4.9044    0.3693 C   0  0  0  0  0  0  0  0  0  0  0  0
    0.5282   -3.0203    4.5383 C   0  0  0  0  0  0  0  0  0  0  0  0
    1.8727   -5.9335    0.9863 O   0  0  0  0  0  0  0  0  0  0  0  0
    1.9019   -4.4189   -0.7159 O   0  5  0  0  0  0  0  0  0  0  0  0
   -0.6296   -3.1888    5.0386 O   0  0  0  0  0  0  0  0  0  0  0  0
    1.4898   -2.3487    5.0300 O   0  5  0  0  0  0  0  0  0  0  0  0
   -0.5158   -1.0735    0.7099 H   0  0  0  0  0  0  0  0  0  0  0  0
    0.4652   -1.8992   -0.4763 H   0  0  0  0  0  0  0  0  0  0  0  0
    2.8207    1.2191   -0.2600 H   0  0  0  0  0  0  0  0  0  0  0  0
    3.1384   -0.3239    0.5199 H   0  0  0  0  0  0  0  0  0  0  0  0
   -0.1430    1.3200    1.0593 H   0  0  0  0  0  0  0  0  0  0  0  0
    0.8758    2.1191   -0.1330 H   0  0  0  0  0  0  0  0  0  0  0  0
    2.1966   -2.3895    1.2723 H   0  0  0  0  0  0  0  0  0  0  0  0
    1.3164   -1.3706    2.4085 H   0  0  0  0  0  0  0  0  0  0  0  0
    1.0919   -0.5420   -2.0139 H   0  0  0  0  0  0  0  0  0  0  0  0
   -0.4916   -5.0312    1.3168 H   0  0  0  0  0  0  0  0  0  0  0  0
   -0.4049   -3.8003    0.1016 H   0  0  0  0  0  0  0  0  0  0  0  0
    0.3637   -4.8149    3.3969 H   0  0  0  0  0  0  0  0  0  0  0  0
    1.9405   -4.0493    3.1975 H   0  0  0  0  0  0  0  0  0  0  0  0
  1  2  1  0  0  0  0
  1  3  1  0  0  0  0
  1  4  1  0  0  0  0
  2  5  1  0  0  0  0
  2 21  1  0  0  0  0
  2 22  1  0  0  0  0
  3  6  1  0  0  0  0
  3 23  1  0  0  0  0
  3 24  1  0  0  0  0
  4  7  1  0  0  0  0
  4 25  1  0  0  0  0
  4 26  1  0  0  0  0
  5  8  1  0  0  0  0
  5 27  1  0  0  0  0
  5 28  1  0  0  0  0
  6  9  1  0  0  0  0
  6 10  2  0  0  0  0
  7 11  2  0  0  0  0
  7 12  1  0  0  0  0
  8 13  1  0  0  0  0
  8 14  1  0  0  0  0
  9 29  1  0  0  0  0
 13 15  1  0  0  0  0
 13 30  1  0  0  0  0
 13 31  1  0  0  0  0
 14 16  1  0  0  0  0
 14 32  1  0  0  0  0
 14 33  1  0  0  0  0
 15 17  2  0  0  0  0
 15 18  1  0  0  0  0
 16 19  2  0  0  0  0
 16 20  1  0  0  0  0
M  CHG  3  12  -1  18  -1  20  -1
M  END
>  <Mol_ID>
7875

>  <Formula>
C10H13N2Na3O8

>  <MolWeight>
358.18813

>  <Cat>
S5706

>  <Name>
Edetate Trisodium

>  <Synonyms>
EDTA Trisodium, ethylenediaminetetraacetic acid Trisodium

>  <Target>
Others

>  <Form>
free base

>  <CAS>
150-38-9

>  <URL>
https://www.selleckchem.com/products/edetate-trisodium.html

$$$$
