S5702 Fenipentol.cdx
 OpenBabel08302520293D

 28 28  0  0  0  0  0  0  0  0999 V2000
    1.2932   -0.2254    0.1112 C   0  0  0  0  0  0  0  0  0  0  0  0
    2.7923   -0.4605    0.1706 C   0  0  3  0  0  0  0  0  0  0  0  0
    0.4619   -1.1722   -0.5047 C   0  0  0  0  0  0  0  0  0  0  0  0
    0.7062    0.9358    0.6405 C   0  0  0  0  0  0  0  0  0  0  0  0
    3.5151    0.1101   -1.0574 C   0  0  0  0  0  0  0  0  0  0  0  0
    3.3511    0.1056    1.3564 O   0  0  0  0  0  0  0  0  0  0  0  0
   -0.9210   -0.9779   -0.5656 C   0  0  0  0  0  0  0  0  0  0  0  0
   -0.6761    1.1242    0.5920 C   0  0  0  0  0  0  0  0  0  0  0  0
    5.0415   -0.0588   -1.0354 C   0  0  0  0  0  0  0  0  0  0  0  0
   -1.4915    0.1655   -0.0101 C   0  0  0  0  0  0  0  0  0  0  0  0
    5.5051   -1.5168   -1.0556 C   0  0  0  0  0  0  0  0  0  0  0  0
    7.0241   -1.6159   -1.1048 C   0  0  0  0  0  0  0  0  0  0  0  0
    2.9631   -1.5408    0.2377 H   0  0  0  0  0  0  0  0  0  0  0  0
    0.8853   -2.0730   -0.9446 H   0  0  0  0  0  0  0  0  0  0  0  0
    1.3252    1.7060    1.0988 H   0  0  0  0  0  0  0  0  0  0  0  0
    3.1126   -0.3420   -1.9734 H   0  0  0  0  0  0  0  0  0  0  0  0
    3.3112    1.1861   -1.1244 H   0  0  0  0  0  0  0  0  0  0  0  0
    2.6848    0.0152    2.0586 H   0  0  0  0  0  0  0  0  0  0  0  0
   -1.5537   -1.7200   -1.0452 H   0  0  0  0  0  0  0  0  0  0  0  0
   -1.1193    2.0183    1.0213 H   0  0  0  0  0  0  0  0  0  0  0  0
    5.4506    0.4538   -1.9153 H   0  0  0  0  0  0  0  0  0  0  0  0
    5.4608    0.4503   -0.1591 H   0  0  0  0  0  0  0  0  0  0  0  0
   -2.5663    0.3138   -0.0519 H   0  0  0  0  0  0  0  0  0  0  0  0
    5.1521   -2.0443   -0.1633 H   0  0  0  0  0  0  0  0  0  0  0  0
    5.0838   -2.0297   -1.9278 H   0  0  0  0  0  0  0  0  0  0  0  0
    7.4744   -1.1629   -0.2154 H   0  0  0  0  0  0  0  0  0  0  0  0
    7.3360   -2.6642   -1.1454 H   0  0  0  0  0  0  0  0  0  0  0  0
    7.4244   -1.1084   -1.9882 H   0  0  0  0  0  0  0  0  0  0  0  0
  1  2  1  0  0  0  0
  1  3  2  0  0  0  0
  1  4  1  0  0  0  0
  2  5  1  0  0  0  0
  2  6  1  0  0  0  0
  2 13  1  0  0  0  0
  3  7  1  0  0  0  0
  3 14  1  0  0  0  0
  4  8  2  0  0  0  0
  4 15  1  0  0  0  0
  5  9  1  0  0  0  0
  5 16  1  0  0  0  0
  5 17  1  0  0  0  0
  6 18  1  0  0  0  0
  7 10  2  0  0  0  0
  7 19  1  0  0  0  0
  8 10  1  0  0  0  0
  8 20  1  0  0  0  0
  9 11  1  0  0  0  0
  9 21  1  0  0  0  0
  9 22  1  0  0  0  0
 10 23  1  0  0  0  0
 11 12  1  0  0  0  0
 11 24  1  0  0  0  0
 11 25  1  0  0  0  0
 12 26  1  0  0  0  0
 12 27  1  0  0  0  0
 12 28  1  0  0  0  0
M  END
>  <Mol_ID>
3240

>  <Formula>
C11H16O

>  <MolWeight>
164.24414

>  <Cat>
S5702

>  <Name>
Fenipentol

>  <Synonyms>
1-phenylpentan-1-ol, 1-Phenyl-1-pentanol, 1-Phenylpentanol

>  <Target>
Others

>  <Form>
free base

>  <CAS>
583-03-9

>  <URL>
https://www.selleckchem.com/products/fenipentol.html

$$$$
