S5717 Acetohexamide.cdx
 OpenBabel08302520303D

 42 43  0  0  0  0  0  0  0  0999 V2000
    0.5335   -0.2891   -0.2353 S   0  0  0  0  0  0  0  0  0  0  0  0
   -0.7242   -1.2349   -1.0603 C   0  0  0  0  0  0  0  0  0  0  0  0
    0.2003   -0.5782    1.3688 N   0  0  0  0  0  0  0  0  0  0  0  0
    0.3593    1.1093   -0.5619 O   0  0  0  0  0  0  0  0  0  0  0  0
    1.7990   -0.9499   -0.4823 O   0  0  0  0  0  0  0  0  0  0  0  0
   -1.9559   -0.6455   -1.3463 C   0  0  0  0  0  0  0  0  0  0  0  0
   -0.4608   -2.5547   -1.4516 C   0  0  0  0  0  0  0  0  0  0  0  0
   -0.7730    0.0679    2.1131 C   0  0  0  0  0  0  0  0  0  0  0  0
   -2.9435   -1.3973   -1.9873 C   0  0  0  0  0  0  0  0  0  0  0  0
   -1.4523   -3.3036   -2.0976 C   0  0  0  0  0  0  0  0  0  0  0  0
   -0.7829   -0.3429    3.4171 N   0  0  0  0  0  0  0  0  0  0  0  0
   -1.5407    0.8927    1.6519 O   0  0  0  0  0  0  0  0  0  0  0  0
   -2.7006   -2.7261   -2.3642 C   0  0  0  0  0  0  0  0  0  0  0  0
   -1.6999    0.2212    4.4000 C   0  0  0  0  0  0  0  0  0  0  0  0
   -3.8122   -3.4840   -3.0050 C   0  0  0  0  0  0  0  0  0  0  0  0
   -1.1317    0.0403    5.8139 C   0  0  0  0  0  0  0  0  0  0  0  0
   -3.1009   -0.3962    4.2826 C   0  0  0  0  0  0  0  0  0  0  0  0
   -3.5101   -4.6097   -3.9584 C   0  0  0  0  0  0  0  0  0  0  0  0
   -4.9745   -3.1693   -2.7500 O   0  0  0  0  0  0  0  0  0  0  0  0
   -2.0846    0.5693    6.8828 C   0  0  0  0  0  0  0  0  0  0  0  0
   -4.0449    0.1196    5.3688 C   0  0  0  0  0  0  0  0  0  0  0  0
   -3.4623   -0.0733    6.7653 C   0  0  0  0  0  0  0  0  0  0  0  0
    0.9213   -1.1259    1.8219 H   0  0  0  0  0  0  0  0  0  0  0  0
   -2.1590    0.3870   -1.0627 H   0  0  0  0  0  0  0  0  0  0  0  0
    0.5085   -3.0093   -1.2509 H   0  0  0  0  0  0  0  0  0  0  0  0
   -3.9123   -0.9401   -2.1928 H   0  0  0  0  0  0  0  0  0  0  0  0
   -1.2375   -4.3369   -2.3622 H   0  0  0  0  0  0  0  0  0  0  0  0
   -0.3142   -1.2074    3.6390 H   0  0  0  0  0  0  0  0  0  0  0  0
   -1.7796    1.2969    4.1929 H   0  0  0  0  0  0  0  0  0  0  0  0
   -0.9308   -1.0224    6.0036 H   0  0  0  0  0  0  0  0  0  0  0  0
   -0.1676    0.5568    5.8975 H   0  0  0  0  0  0  0  0  0  0  0  0
   -3.5307   -0.1738    3.2987 H   0  0  0  0  0  0  0  0  0  0  0  0
   -3.0326   -1.4895    4.3505 H   0  0  0  0  0  0  0  0  0  0  0  0
   -3.8111   -5.5579   -3.5053 H   0  0  0  0  0  0  0  0  0  0  0  0
   -4.0809   -4.4461   -4.8779 H   0  0  0  0  0  0  0  0  0  0  0  0
   -2.4557   -4.6577   -4.2356 H   0  0  0  0  0  0  0  0  0  0  0  0
   -1.6697    0.3744    7.8782 H   0  0  0  0  0  0  0  0  0  0  0  0
   -2.1788    1.6578    6.7835 H   0  0  0  0  0  0  0  0  0  0  0  0
   -5.0079   -0.3985    5.2974 H   0  0  0  0  0  0  0  0  0  0  0  0
   -4.2437    1.1858    5.2031 H   0  0  0  0  0  0  0  0  0  0  0  0
   -3.3870   -1.1452    6.9866 H   0  0  0  0  0  0  0  0  0  0  0  0
   -4.1376    0.3601    7.5119 H   0  0  0  0  0  0  0  0  0  0  0  0
  1  2  1  0  0  0  0
  1  3  1  0  0  0  0
  1  4  2  0  0  0  0
  1  5  2  0  0  0  0
  2  6  2  0  0  0  0
  2  7  1  0  0  0  0
  3  8  1  0  0  0  0
  3 23  1  0  0  0  0
  6  9  1  0  0  0  0
  6 24  1  0  0  0  0
  7 10  2  0  0  0  0
  7 25  1  0  0  0  0
  8 11  1  0  0  0  0
  8 12  2  0  0  0  0
  9 13  2  0  0  0  0
  9 26  1  0  0  0  0
 10 13  1  0  0  0  0
 10 27  1  0  0  0  0
 11 14  1  0  0  0  0
 11 28  1  0  0  0  0
 13 15  1  0  0  0  0
 14 16  1  0  0  0  0
 14 17  1  0  0  0  0
 14 29  1  0  0  0  0
 15 18  1  0  0  0  0
 15 19  2  0  0  0  0
 16 20  1  0  0  0  0
 16 30  1  0  0  0  0
 16 31  1  0  0  0  0
 17 21  1  0  0  0  0
 17 32  1  0  0  0  0
 17 33  1  0  0  0  0
 18 34  1  0  0  0  0
 18 35  1  0  0  0  0
 18 36  1  0  0  0  0
 20 22  1  0  0  0  0
 20 37  1  0  0  0  0
 20 38  1  0  0  0  0
 21 22  1  0  0  0  0
 21 39  1  0  0  0  0
 21 40  1  0  0  0  0
 22 41  1  0  0  0  0
 22 42  1  0  0  0  0
M  END
>  <Mol_ID>
3304

>  <Formula>
C15H20N2O4S

>  <MolWeight>
324.3953

>  <Cat>
S5717

>  <Name>
Acetohexamide

>  <Synonyms>
N/A

>  <Target>
Others

>  <Form>
free base

>  <CAS>
968-81-0

>  <URL>
http://selleckchem.com/products/acetohexamide.html

$$$$
