S9008 20-Deoxyingenol.cdx
 OpenBabel08302521213D

 52 55  0  0  0  0  0  0  0  0999 V2000
    0.2001   -2.8360    0.3282 C   0  0  1  0  0  0  0  0  0  0  0  0
    0.1847   -2.0180    1.6448 C   0  0  2  0  0  0  0  0  0  0  0  0
   -1.4519   -1.3836    1.3685 C   0  0  1  0  0  0  0  0  0  0  0  0
   -2.3111   -1.9736    0.0038 C   0  0  0  0  0  0  0  0  0  0  0  0
   -2.5204   -3.2701   -0.3894 C   0  0  0  0  0  0  0  0  0  0  0  0
   -2.0173   -4.5128    0.3258 C   0  0  2  0  0  0  0  0  0  0  0  0
   -0.9354   -3.9056    1.0844 C   0  0  0  0  0  0  0  0  0  0  0  0
    0.4270   -1.3644   -0.3854 C   0  0  0  0  0  0  0  0  0  0  0  0
    1.2628   -0.5473    0.3002 C   0  0  0  0  0  0  0  0  0  0  0  0
    1.3992   -1.1050    1.6205 C   0  0  2  0  0  0  0  0  0  0  0  0
    0.2082   -4.4601   -1.6565 C   0  0  0  0  0  0  0  0  0  0  0  0
   -0.4277   -5.7141   -1.2350 C   0  0  2  0  0  0  0  0  0  0  0  0
    1.0967   -3.6700   -0.6618 C   0  0  1  0  0  0  0  0  0  0  0  0
   -1.5309   -5.8365   -0.3088 C   0  0  1  0  0  0  0  0  0  0  0  0
   -0.0815   -6.5921   -0.0416 C   0  0  0  0  0  0  0  0  0  0  0  0
   -2.5949   -0.9818   -1.1037 C   0  0  0  0  0  0  0  0  0  0  0  0
    2.5976   -1.9099    1.6906 O   0  0  0  0  0  0  0  0  0  0  0  0
    0.4200   -2.6138    2.9335 O   0  0  0  0  0  0  0  0  0  0  0  0
   -2.3099   -1.4932    2.4943 O   0  0  0  0  0  0  0  0  0  0  0  0
    1.9636   -2.8951   -1.7468 C   0  0  0  0  0  0  0  0  0  0  0  0
    0.6724   -7.7560   -0.6685 C   0  0  0  0  0  0  0  0  0  0  0  0
    0.3460   -6.5219    1.4097 C   0  0  0  0  0  0  0  0  0  0  0  0
   -1.0161   -4.1692    2.2932 O   0  0  0  0  0  0  0  0  0  0  0  0
    2.0459    0.6597   -0.0309 C   0  0  0  0  0  0  0  0  0  0  0  0
   -1.3357   -0.3054    1.1989 H   0  0  0  0  0  0  0  0  0  0  0  0
   -3.0307   -3.4866   -1.3244 H   0  0  0  0  0  0  0  0  0  0  0  0
   -2.8326   -4.8221    0.9975 H   0  0  0  0  0  0  0  0  0  0  0  0
    0.1228   -1.1356   -1.3964 H   0  0  0  0  0  0  0  0  0  0  0  0
    1.4169   -0.3969    2.4547 H   0  0  0  0  0  0  0  0  0  0  0  0
    0.8241   -4.7761   -2.5096 H   0  0  0  0  0  0  0  0  0  0  0  0
   -0.5492   -3.8071   -2.1113 H   0  0  0  0  0  0  0  0  0  0  0  0
   -0.6665   -6.2432   -2.1724 H   0  0  0  0  0  0  0  0  0  0  0  0
    1.7545   -4.3299   -0.0964 H   0  0  0  0  0  0  0  0  0  0  0  0
   -2.3506   -6.5248   -0.4861 H   0  0  0  0  0  0  0  0  0  0  0  0
   -3.6041   -1.1010   -1.5072 H   0  0  0  0  0  0  0  0  0  0  0  0
   -2.4451    0.0536   -0.7978 H   0  0  0  0  0  0  0  0  0  0  0  0
   -1.9163   -1.1733   -1.9484 H   0  0  0  0  0  0  0  0  0  0  0  0
    3.0371   -1.8880    0.8243 H   0  0  0  0  0  0  0  0  0  0  0  0
    1.2372   -3.1471    2.8503 H   0  0  0  0  0  0  0  0  0  0  0  0
   -3.1111   -1.9692    2.2180 H   0  0  0  0  0  0  0  0  0  0  0  0
    2.5841   -3.5840   -2.3278 H   0  0  0  0  0  0  0  0  0  0  0  0
    1.3100   -2.4217   -2.5074 H   0  0  0  0  0  0  0  0  0  0  0  0
    2.6237   -2.1262   -1.3495 H   0  0  0  0  0  0  0  0  0  0  0  0
    1.1102   -7.4929   -1.6382 H   0  0  0  0  0  0  0  0  0  0  0  0
    1.5516   -8.0175   -0.0575 H   0  0  0  0  0  0  0  0  0  0  0  0
    0.0409   -8.6374   -0.7679 H   0  0  0  0  0  0  0  0  0  0  0  0
    1.3650   -6.1476    1.5430 H   0  0  0  0  0  0  0  0  0  0  0  0
    0.3214   -7.5433    1.8177 H   0  0  0  0  0  0  0  0  0  0  0  0
   -0.3282   -6.0396    2.0972 H   0  0  0  0  0  0  0  0  0  0  0  0
    2.8602    0.7804    0.7212 H   0  0  0  0  0  0  0  0  0  0  0  0
    2.5586    0.5717   -0.9871 H   0  0  0  0  0  0  0  0  0  0  0  0
    1.4577    1.5728    0.0209 H   0  0  0  0  0  0  0  0  0  0  0  0
  1  2  1  0  0  0  0
  1  8  1  6  0  0  0
  1 13  1  0  0  0  0
  2  3  1  0  0  0  0
  2 18  1  1  0  0  0
  3  4  1  0  0  0  0
  3 25  1  6  0  0  0
  3 19  1  0  0  0  0
  4  5  2  0  0  0  0
  4 16  1  0  0  0  0
  5 26  1  0  0  0  0
  6  5  1  0  0  0  0
  6  7  1  0  0  0  0
  6 27  1  1  0  0  0
  7  1  1  0  0  0  0
  7 23  2  0  0  0  0
  8  9  2  0  0  0  0
  8 28  1  0  0  0  0
  9 10  1  0  0  0  0
  9 24  1  0  0  0  0
 10  2  1  0  0  0  0
 10 29  1  1  0  0  0
 10 17  1  0  0  0  0
 11 13  1  0  0  0  0
 11 30  1  0  0  0  0
 11 31  1  0  0  0  0
 12 11  1  0  0  0  0
 12 14  1  0  0  0  0
 12 15  1  0  0  0  0
 12 32  1  6  0  0  0
 13 20  1  0  0  0  0
 13 33  1  1  0  0  0
 14  6  1  0  0  0  0
 14 15  1  0  0  0  0
 14 34  1  6  0  0  0
 15 21  1  0  0  0  0
 15 22  1  0  0  0  0
 16 35  1  0  0  0  0
 16 36  1  0  0  0  0
 16 37  1  0  0  0  0
 17 38  1  0  0  0  0
 18 39  1  0  0  0  0
 19 40  1  0  0  0  0
 20 41  1  0  0  0  0
 20 42  1  0  0  0  0
 20 43  1  0  0  0  0
 21 44  1  0  0  0  0
 21 45  1  0  0  0  0
 21 46  1  0  0  0  0
 22 47  1  0  0  0  0
 22 48  1  0  0  0  0
 22 49  1  0  0  0  0
 24 50  1  0  0  0  0
 24 51  1  0  0  0  0
 24 52  1  0  0  0  0
M  END
>  <Mol_ID>
4565

>  <Formula>
C20H28O4

>  <MolWeight>
332.43392

>  <Cat>
S9008

>  <Name>
20-Deoxyingenol

>  <Target>
Others

>  <Form>
free base

>  <CAS>
54706-99-9

>  <URL>
https://www.selleckchem.com/products/20-deoxyingenol.html

$$$$
