S9028 Cimifugin.cdx
 OpenBabel08302521043D

 40 42  0  0  0  0  0  0  0  0999 V2000
   -1.0574    0.8155   -0.0208 C   0  0  0  0  0  0  0  0  0  0  0  0
    1.3439    0.7730   -0.0546 C   0  0  0  0  0  0  0  0  0  0  0  0
    0.1618    1.5263   -0.0636 C   0  0  0  0  0  0  0  0  0  0  0  0
   -2.4199    1.4110   -0.0016 C   0  0  0  0  0  0  0  0  0  0  0  0
    1.3601   -0.6031    0.0123 C   0  0  0  0  0  0  0  0  0  0  0  0
   -1.0215   -0.6079    0.0113 C   0  0  0  0  0  0  0  0  0  0  0  0
    2.6125   -1.1504    0.0681 O   0  0  0  0  0  0  0  0  0  0  0  0
   -3.5685    0.5043   -0.0088 C   0  0  0  0  0  0  0  0  0  0  0  0
   -2.1483   -1.4117    0.0243 O   0  0  0  0  0  0  0  0  0  0  0  0
    0.1884   -1.3199    0.0337 C   0  0  0  0  0  0  0  0  0  0  0  0
    2.7371    1.2840   -0.1232 C   0  0  0  0  0  0  0  0  0  0  0  0
    3.5392   -0.0158    0.0266 C   0  0  1  0  0  0  0  0  0  0  0  0
   -3.3976   -0.8183    0.0016 C   0  0  0  0  0  0  0  0  0  0  0  0
    4.4778   -0.0521    1.2661 C   0  0  0  0  0  0  0  0  0  0  0  0
   -2.6818    2.6014    0.0310 O   0  0  0  0  0  0  0  0  0  0  0  0
    0.4832    2.8483   -0.1160 O   0  0  0  0  0  0  0  0  0  0  0  0
    5.2226   -1.2815    1.2365 O   0  0  0  0  0  0  0  0  0  0  0  0
   -4.5566   -1.7801   -0.0023 C   0  0  0  0  0  0  0  0  0  0  0  0
   -5.8003   -1.0832   -0.0111 O   0  0  0  0  0  0  0  0  0  0  0  0
    5.5159    1.0755    1.2270 C   0  0  0  0  0  0  0  0  0  0  0  0
    3.7160   -0.0237    2.5946 C   0  0  0  0  0  0  0  0  0  0  0  0
   -0.4659    3.8887   -0.0739 C   0  0  0  0  0  0  0  0  0  0  0  0
   -4.5462    0.9721   -0.0165 H   0  0  0  0  0  0  0  0  0  0  0  0
    0.2029   -2.4044    0.0670 H   0  0  0  0  0  0  0  0  0  0  0  0
    2.9319    2.0145    0.6652 H   0  0  0  0  0  0  0  0  0  0  0  0
    2.9346    1.7482   -1.0953 H   0  0  0  0  0  0  0  0  0  0  0  0
    4.1523   -0.1711   -0.8720 H   0  0  0  0  0  0  0  0  0  0  0  0
    4.5701   -1.9982    1.1300 H   0  0  0  0  0  0  0  0  0  0  0  0
   -4.5179   -2.4146   -0.8927 H   0  0  0  0  0  0  0  0  0  0  0  0
   -4.5273   -2.4086    0.8924 H   0  0  0  0  0  0  0  0  0  0  0  0
   -6.5075   -1.7492   -0.0126 H   0  0  0  0  0  0  0  0  0  0  0  0
    5.0617    2.0687    1.2864 H   0  0  0  0  0  0  0  0  0  0  0  0
    6.2234    0.9813    2.0594 H   0  0  0  0  0  0  0  0  0  0  0  0
    6.1133    1.0223    0.3096 H   0  0  0  0  0  0  0  0  0  0  0  0
    3.1278    0.8907    2.7140 H   0  0  0  0  0  0  0  0  0  0  0  0
    3.0443   -0.8841    2.6846 H   0  0  0  0  0  0  0  0  0  0  0  0
    4.4112   -0.0913    3.4394 H   0  0  0  0  0  0  0  0  0  0  0  0
   -1.0935    3.8780   -0.9683 H   0  0  0  0  0  0  0  0  0  0  0  0
   -1.0183    3.8802    0.8693 H   0  0  0  0  0  0  0  0  0  0  0  0
    0.0848    4.8344   -0.0962 H   0  0  0  0  0  0  0  0  0  0  0  0
  2  3  2  0  0  0  0
  2  5  1  0  0  0  0
  3  1  1  0  0  0  0
  4  1  1  0  0  0  0
  5 10  2  0  0  0  0
  6  1  2  0  0  0  0
  7  5  1  0  0  0  0
  7 12  1  0  0  0  0
  8  4  1  0  0  0  0
  8 13  2  0  0  0  0
  8 23  1  0  0  0  0
  9  6  1  0  0  0  0
 10  6  1  0  0  0  0
 10 24  1  0  0  0  0
 11  2  1  0  0  0  0
 11 25  1  0  0  0  0
 11 26  1  0  0  0  0
 12 11  1  0  0  0  0
 12 14  1  0  0  0  0
 12 27  1  6  0  0  0
 13  9  1  0  0  0  0
 15  4  2  0  0  0  0
 16  3  1  0  0  0  0
 17 14  1  0  0  0  0
 17 28  1  0  0  0  0
 18 13  1  0  0  0  0
 18 29  1  0  0  0  0
 18 30  1  0  0  0  0
 19 18  1  0  0  0  0
 19 31  1  0  0  0  0
 20 14  1  0  0  0  0
 20 32  1  0  0  0  0
 20 33  1  0  0  0  0
 20 34  1  0  0  0  0
 21 14  1  0  0  0  0
 21 35  1  0  0  0  0
 21 36  1  0  0  0  0
 21 37  1  0  0  0  0
 22 16  1  0  0  0  0
 22 38  1  0  0  0  0
 22 39  1  0  0  0  0
 22 40  1  0  0  0  0
M  END
>  <Mol_ID>
4332

>  <Formula>
C16H18O6

>  <MolWeight>
306.31052

>  <Cat>
S9028

>  <Name>
Cimifugin

>  <Synonyms>
FC42575

>  <Target>
Others

>  <Form>
free base

>  <CAS>
37921-38-3

>  <URL>
https://www.selleckchem.com/products/cimifugin.html

$$$$
