S9047 Leonurine Hydrochloride.cdx
 OpenBabel08302521213D

 43 43  0  0  0  0  0  0  0  0999 V2000
    0.6784    0.0786    0.3565 C   0  0  0  0  0  0  0  0  0  0  0  0
   -0.2175   -0.9815    0.8855 C   0  0  0  0  0  0  0  0  0  0  0  0
   -1.5992   -0.7727    0.8171 C   0  0  0  0  0  0  0  0  0  0  0  0
   -2.4800   -1.6282    1.4916 C   0  0  0  0  0  0  0  0  0  0  0  0
   -1.9734   -2.7316    2.1885 C   0  0  0  0  0  0  0  0  0  0  0  0
   -0.5974   -2.9942    2.1889 C   0  0  0  0  0  0  0  0  0  0  0  0
    0.2755   -2.1104    1.5490 C   0  0  0  0  0  0  0  0  0  0  0  0
    0.2612    1.1267   -0.1089 O   0  0  0  0  0  0  0  0  0  0  0  0
    1.9805   -0.2545    0.5414 O   0  0  0  0  0  0  0  0  0  0  0  0
    0.0223   -4.0038    2.8783 O   0  0  0  0  0  0  0  0  0  0  0  0
   -0.5862   -5.2910    2.8110 C   0  0  0  0  0  0  0  0  0  0  0  0
   -3.7939   -1.2475    1.4077 O   0  0  0  0  0  0  0  0  0  0  0  0
   -4.5576   -1.4082    2.6006 C   0  0  0  0  0  0  0  0  0  0  0  0
   -2.8259   -3.5078    2.9220 O   0  0  0  0  0  0  0  0  0  0  0  0
    2.9625    0.7779    0.3512 C   0  0  0  0  0  0  0  0  0  0  0  0
    3.5771    0.7273   -1.0457 C   0  0  0  0  0  0  0  0  0  0  0  0
    2.6210    1.0973   -2.1796 C   0  0  0  0  0  0  0  0  0  0  0  0
    2.1327    2.5449   -2.1110 C   0  0  0  0  0  0  0  0  0  0  0  0
    1.1617    2.7695   -3.1536 N   0  0  0  0  0  0  0  0  0  0  0  0
    1.3981    3.2142   -4.3995 C   0  0  0  0  0  0  0  0  0  0  0  0
    2.5229    3.5316   -4.9259 N   0  0  0  0  0  0  0  0  0  0  0  0
    0.2789    3.2877   -5.1359 N   0  0  0  0  0  0  0  0  0  0  0  0
   -1.9990    0.0955    0.2931 H   0  0  0  0  0  0  0  0  0  0  0  0
    1.3456   -2.2977    1.6046 H   0  0  0  0  0  0  0  0  0  0  0  0
   -1.2535   -5.4309    3.6655 H   0  0  0  0  0  0  0  0  0  0  0  0
   -1.1116   -5.4702    1.8674 H   0  0  0  0  0  0  0  0  0  0  0  0
    0.2086   -6.0378    2.9057 H   0  0  0  0  0  0  0  0  0  0  0  0
   -5.0291   -2.3951    2.6175 H   0  0  0  0  0  0  0  0  0  0  0  0
   -3.9646   -1.2349    3.5069 H   0  0  0  0  0  0  0  0  0  0  0  0
   -5.3566   -0.6603    2.5907 H   0  0  0  0  0  0  0  0  0  0  0  0
   -2.3529   -3.7101    3.7486 H   0  0  0  0  0  0  0  0  0  0  0  0
    2.5644    1.7666    0.6031 H   0  0  0  0  0  0  0  0  0  0  0  0
    3.7546    0.5774    1.0820 H   0  0  0  0  0  0  0  0  0  0  0  0
    4.4466    1.3946   -1.0801 H   0  0  0  0  0  0  0  0  0  0  0  0
    3.9432   -0.2900   -1.2324 H   0  0  0  0  0  0  0  0  0  0  0  0
    3.1423    0.9443   -3.1336 H   0  0  0  0  0  0  0  0  0  0  0  0
    1.7717    0.4042   -2.1966 H   0  0  0  0  0  0  0  0  0  0  0  0
    1.6572    2.7717   -1.1543 H   0  0  0  0  0  0  0  0  0  0  0  0
    2.9766    3.2383   -2.1895 H   0  0  0  0  0  0  0  0  0  0  0  0
    0.1977    2.7808   -2.8405 H   0  0  0  0  0  0  0  0  0  0  0  0
    3.2618    3.4142   -4.2336 H   0  0  0  0  0  0  0  0  0  0  0  0
   -0.2733    2.4416   -5.0899 H   0  0  0  0  0  0  0  0  0  0  0  0
    0.5333    3.4914   -6.0969 H   0  0  0  0  0  0  0  0  0  0  0  0
  1  2  1  0  0  0  0
  1  8  2  0  0  0  0
  1  9  1  0  0  0  0
  2  3  2  0  0  0  0
  2  7  1  0  0  0  0
  3  4  1  0  0  0  0
  3 23  1  0  0  0  0
  4  5  2  0  0  0  0
  4 12  1  0  0  0  0
  5  6  1  0  0  0  0
  5 14  1  0  0  0  0
  6  7  2  0  0  0  0
  6 10  1  0  0  0  0
  7 24  1  0  0  0  0
  9 15  1  0  0  0  0
 10 11  1  0  0  0  0
 11 25  1  0  0  0  0
 11 26  1  0  0  0  0
 11 27  1  0  0  0  0
 12 13  1  0  0  0  0
 13 28  1  0  0  0  0
 13 29  1  0  0  0  0
 13 30  1  0  0  0  0
 14 31  1  0  0  0  0
 15 16  1  0  0  0  0
 15 32  1  0  0  0  0
 15 33  1  0  0  0  0
 16 17  1  0  0  0  0
 16 34  1  0  0  0  0
 16 35  1  0  0  0  0
 17 18  1  0  0  0  0
 17 36  1  0  0  0  0
 17 37  1  0  0  0  0
 18 19  1  0  0  0  0
 18 38  1  0  0  0  0
 18 39  1  0  0  0  0
 19 20  1  0  0  0  0
 19 40  1  0  0  0  0
 20 21  2  0  0  0  0
 20 22  1  0  0  0  0
 21 41  1  0  0  0  0
 22 42  1  0  0  0  0
 22 43  1  0  0  0  0
M  END
>  <Mol_ID>
4557

>  <Formula>
C14H22ClN3O5

>  <MolWeight>
347.79458

>  <Cat>
S9047

>  <Name>
Leonurine Hydrochloride

>  <Synonyms>
SCM-198 HCl

>  <Target>
Others

>  <Form>
free base

>  <CAS>
24735-18-0

>  <URL>
https://www.selleckchem.com/products/leonurine-hydrochloride.html

$$$$
