S9050 Boldine.cdx
 OpenBabel08302521043D

 45 48  0  0  0  0  0  0  0  0999 V2000
   -1.0160   -0.0907   -0.0704 C   0  0  0  0  0  0  0  0  0  0  0  0
    0.0889   -1.0056    0.0045 C   0  0  0  0  0  0  0  0  0  0  0  0
   -0.7518    1.4143   -0.2498 C   0  0  2  0  0  0  0  0  0  0  0  0
   -2.3436   -0.5556   -0.0256 C   0  0  0  0  0  0  0  0  0  0  0  0
    1.4816   -0.4371   -0.0573 C   0  0  0  0  0  0  0  0  0  0  0  0
   -0.2072   -2.3946    0.1893 C   0  0  0  0  0  0  0  0  0  0  0  0
    0.4960    1.7946    0.5708 C   0  0  0  0  0  0  0  0  0  0  0  0
   -1.9047    2.2777    0.1433 N   0  0  0  0  0  0  0  0  0  0  0  0
   -2.5992   -1.9174    0.1246 C   0  0  0  0  0  0  0  0  0  0  0  0
   -3.5103    0.3932   -0.0400 C   0  0  0  0  0  0  0  0  0  0  0  0
    1.6749    0.9248    0.2262 C   0  0  0  0  0  0  0  0  0  0  0  0
    2.6460   -1.1598   -0.3906 C   0  0  0  0  0  0  0  0  0  0  0  0
   -1.5470   -2.8219    0.2370 C   0  0  0  0  0  0  0  0  0  0  0  0
    0.8764   -3.2227    0.3521 O   0  0  0  0  0  0  0  0  0  0  0  0
   -3.1434    1.8027   -0.4865 C   0  0  0  0  0  0  0  0  0  0  0  0
   -1.7012    3.6813   -0.2357 C   0  0  0  0  0  0  0  0  0  0  0  0
    2.9580    1.4931    0.2342 C   0  0  0  0  0  0  0  0  0  0  0  0
    3.9514   -0.6090   -0.3785 C   0  0  0  0  0  0  0  0  0  0  0  0
   -1.8820   -4.1401    0.4145 O   0  0  0  0  0  0  0  0  0  0  0  0
    0.6985   -4.6175    0.5416 C   0  0  0  0  0  0  0  0  0  0  0  0
    4.0918    0.7396   -0.0600 C   0  0  0  0  0  0  0  0  0  0  0  0
    4.8926   -1.5486   -0.6909 O   0  0  0  0  0  0  0  0  0  0  0  0
    5.2392    1.4727    0.0027 O   0  0  0  0  0  0  0  0  0  0  0  0
    6.2690   -1.2323   -0.7265 C   0  0  0  0  0  0  0  0  0  0  0  0
   -0.5468    1.5596   -1.3220 H   0  0  0  0  0  0  0  0  0  0  0  0
    0.3025    1.7064    1.6473 H   0  0  0  0  0  0  0  0  0  0  0  0
    0.7759    2.8335    0.3680 H   0  0  0  0  0  0  0  0  0  0  0  0
   -3.6298   -2.2569    0.1788 H   0  0  0  0  0  0  0  0  0  0  0  0
   -3.9324    0.4282    0.9724 H   0  0  0  0  0  0  0  0  0  0  0  0
   -4.2880    0.0088   -0.7112 H   0  0  0  0  0  0  0  0  0  0  0  0
    2.5720   -2.2064   -0.6781 H   0  0  0  0  0  0  0  0  0  0  0  0
   -3.9772    2.4596   -0.2129 H   0  0  0  0  0  0  0  0  0  0  0  0
   -3.0559    1.8375   -1.5842 H   0  0  0  0  0  0  0  0  0  0  0  0
   -1.5921    3.8018   -1.3197 H   0  0  0  0  0  0  0  0  0  0  0  0
   -2.5531    4.2889    0.0920 H   0  0  0  0  0  0  0  0  0  0  0  0
   -0.8286    4.1238    0.2524 H   0  0  0  0  0  0  0  0  0  0  0  0
    3.0812    2.5477    0.4749 H   0  0  0  0  0  0  0  0  0  0  0  0
   -2.8469   -4.2254    0.4467 H   0  0  0  0  0  0  0  0  0  0  0  0
    0.2573   -4.8254    1.5216 H   0  0  0  0  0  0  0  0  0  0  0  0
    0.1345   -5.0744   -0.2773 H   0  0  0  0  0  0  0  0  0  0  0  0
    1.6905   -5.0800    0.5263 H   0  0  0  0  0  0  0  0  0  0  0  0
    6.0070    0.9352   -0.2084 H   0  0  0  0  0  0  0  0  0  0  0  0
    6.4836   -0.5377   -1.5444 H   0  0  0  0  0  0  0  0  0  0  0  0
    6.6222   -0.8590    0.2398 H   0  0  0  0  0  0  0  0  0  0  0  0
    6.8218   -2.1550   -0.9287 H   0  0  0  0  0  0  0  0  0  0  0  0
  1  2  1  0  0  0  0
  1  3  1  0  0  0  0
  1  4  2  0  0  0  0
  2  5  1  0  0  0  0
  2  6  2  0  0  0  0
  3  7  1  0  0  0  0
  3  8  1  0  0  0  0
  3 25  1  6  0  0  0
  4  9  1  0  0  0  0
  4 10  1  0  0  0  0
  5 11  2  0  0  0  0
  5 12  1  0  0  0  0
  6 13  1  0  0  0  0
  6 14  1  0  0  0  0
  7 11  1  0  0  0  0
  7 26  1  0  0  0  0
  7 27  1  0  0  0  0
  8 15  1  0  0  0  0
  8 16  1  0  0  0  0
  9 13  2  0  0  0  0
  9 28  1  0  0  0  0
 10 15  1  0  0  0  0
 10 29  1  0  0  0  0
 10 30  1  0  0  0  0
 11 17  1  0  0  0  0
 12 18  2  0  0  0  0
 12 31  1  0  0  0  0
 13 19  1  0  0  0  0
 14 20  1  0  0  0  0
 15 32  1  0  0  0  0
 15 33  1  0  0  0  0
 16 34  1  0  0  0  0
 16 35  1  0  0  0  0
 16 36  1  0  0  0  0
 17 21  2  0  0  0  0
 17 37  1  0  0  0  0
 18 22  1  0  0  0  0
 18 21  1  0  0  0  0
 19 38  1  0  0  0  0
 20 39  1  0  0  0  0
 20 40  1  0  0  0  0
 20 41  1  0  0  0  0
 21 23  1  0  0  0  0
 22 24  1  0  0  0  0
 23 42  1  0  0  0  0
 24 43  1  0  0  0  0
 24 44  1  0  0  0  0
 24 45  1  0  0  0  0
M  END
>  <Mol_ID>
4341

>  <Formula>
C19H21NO4

>  <MolWeight>
327.37434

>  <Cat>
S9050

>  <Name>
Boldine

>  <Synonyms>
1, 10-Dimethoxy-2, 9-dihydroxyaporphine; ex Peumus boldus

>  <Target>
Adrenergic Receptor

>  <Form>
free base

>  <CAS>
476-70-0

>  <URL>
https://www.selleckchem.com/products/boldine.html

$$$$
