S9088 Calycosin-7-O-beta-D-glucoside.cdx
 OpenBabel08302521043D

 54 57  0  0  0  0  0  0  0  0999 V2000
    0.1388    3.9294   -2.2154 C   0  0  1  0  0  0  0  0  0  0  0  0
   -1.1705    3.8342   -1.4170 C   0  0  1  0  0  0  0  0  0  0  0  0
   -0.8716    3.9862    0.0750 C   0  0  1  0  0  0  0  0  0  0  0  0
    1.3315    3.0794   -0.1403 C   0  0  1  0  0  0  0  0  0  0  0  0
    1.1832    2.9264   -1.6762 C   0  0  2  0  0  0  0  0  0  0  0  0
   -0.1269    3.6937   -3.6044 O   0  0  0  0  0  0  0  0  0  0  0  0
   -2.1246    4.8061   -1.8426 O   0  0  0  0  0  0  0  0  0  0  0  0
   -2.1525    3.8489    0.9051 C   0  0  0  0  0  0  0  0  0  0  0  0
   -1.8429    3.9994    2.2908 O   0  0  0  0  0  0  0  0  0  0  0  0
    0.0502    2.9713    0.4972 O   0  0  0  0  0  0  0  0  0  0  0  0
    2.2462    2.0950    0.3995 O   0  0  0  0  0  0  0  0  0  0  0  0
    2.4959    2.2205    1.7498 C   0  0  0  0  0  0  0  0  0  0  0  0
    2.8392    1.0660    2.4678 C   0  0  0  0  0  0  0  0  0  0  0  0
    2.9852    1.1232    3.8626 C   0  0  0  0  0  0  0  0  0  0  0  0
    2.8765    2.3451    4.5274 C   0  0  0  0  0  0  0  0  0  0  0  0
    3.0250    2.4325    5.9915 C   0  0  0  0  0  0  0  0  0  0  0  0
    3.1721    1.4307    6.6693 O   0  0  0  0  0  0  0  0  0  0  0  0
    2.9957    3.8006    6.5690 C   0  0  0  0  0  0  0  0  0  0  0  0
    3.1652    4.0214    8.0067 C   0  0  0  0  0  0  0  0  0  0  0  0
    2.0500    4.0216    8.8588 C   0  0  0  0  0  0  0  0  0  0  0  0
    2.2008    4.2496   10.2324 C   0  0  0  0  0  0  0  0  0  0  0  0
    3.4683    4.4800   10.7648 C   0  0  0  0  0  0  0  0  0  0  0  0
    3.7585    4.7305   12.0814 O   0  0  0  0  0  0  0  0  0  0  0  0
    2.6540    4.7499   12.9792 C   0  0  0  0  0  0  0  0  0  0  0  0
    4.5722    4.4749    9.9040 C   0  0  0  0  0  0  0  0  0  0  0  0
    5.8276    4.7216   10.3901 O   0  0  0  0  0  0  0  0  0  0  0  0
    4.4367    4.2462    8.5398 C   0  0  0  0  0  0  0  0  0  0  0  0
    2.7971    4.8313    5.7357 C   0  0  0  0  0  0  0  0  0  0  0  0
    2.5854    4.7505    4.3823 O   0  0  0  0  0  0  0  0  0  0  0  0
    2.6306    3.5030    3.8086 C   0  0  0  0  0  0  0  0  0  0  0  0
    2.4310    3.4398    2.4289 C   0  0  0  0  0  0  0  0  0  0  0  0
    2.4339    3.1075   -2.3562 O   0  0  0  0  0  0  0  0  0  0  0  0
    0.5314    4.9545   -2.1758 H   0  0  0  0  0  0  0  0  0  0  0  0
   -1.6171    2.8503   -1.6074 H   0  0  0  0  0  0  0  0  0  0  0  0
   -0.4310    4.9686    0.2926 H   0  0  0  0  0  0  0  0  0  0  0  0
    1.7524    4.0773    0.0232 H   0  0  0  0  0  0  0  0  0  0  0  0
    0.8435    1.9165   -1.9240 H   0  0  0  0  0  0  0  0  0  0  0  0
   -0.4072    2.7660   -3.7104 H   0  0  0  0  0  0  0  0  0  0  0  0
   -1.6622    5.6278   -2.0830 H   0  0  0  0  0  0  0  0  0  0  0  0
   -2.8855    4.6161    0.6393 H   0  0  0  0  0  0  0  0  0  0  0  0
   -2.6083    2.8624    0.7705 H   0  0  0  0  0  0  0  0  0  0  0  0
   -1.1632    3.3259    2.4839 H   0  0  0  0  0  0  0  0  0  0  0  0
    2.9892    0.1147    1.9630 H   0  0  0  0  0  0  0  0  0  0  0  0
    3.1893    0.2136    4.4318 H   0  0  0  0  0  0  0  0  0  0  0  0
    1.0540    3.8437    8.4586 H   0  0  0  0  0  0  0  0  0  0  0  0
    1.3088    4.2464   10.8484 H   0  0  0  0  0  0  0  0  0  0  0  0
    1.9623    5.5620   12.7317 H   0  0  0  0  0  0  0  0  0  0  0  0
    2.1400    3.7829   12.9964 H   0  0  0  0  0  0  0  0  0  0  0  0
    3.0426    4.9376   13.9847 H   0  0  0  0  0  0  0  0  0  0  0  0
    5.7003    4.8815   11.3455 H   0  0  0  0  0  0  0  0  0  0  0  0
    5.3181    4.2498    7.9059 H   0  0  0  0  0  0  0  0  0  0  0  0
    2.7816    5.8680    6.0516 H   0  0  0  0  0  0  0  0  0  0  0  0
    2.2378    4.3715    1.9129 H   0  0  0  0  0  0  0  0  0  0  0  0
    2.7525    4.0155   -2.2160 H   0  0  0  0  0  0  0  0  0  0  0  0
  1  6  1  0  0  0  0
  1  2  1  0  0  0  0
  1  5  1  0  0  0  0
  1 33  1  1  0  0  0
  2  7  1  0  0  0  0
  2  3  1  0  0  0  0
  2 34  1  6  0  0  0
  3  8  1  0  0  0  0
  3 10  1  0  0  0  0
  3 35  1  1  0  0  0
  4 11  1  0  0  0  0
  4  5  1  0  0  0  0
  4 36  1  1  0  0  0
  5 32  1  0  0  0  0
  5 37  1  6  0  0  0
  6 38  1  0  0  0  0
  7 39  1  0  0  0  0
  8  9  1  0  0  0  0
  8 40  1  0  0  0  0
  8 41  1  0  0  0  0
  9 42  1  0  0  0  0
 10  4  1  0  0  0  0
 12 11  1  0  0  0  0
 12 13  2  0  0  0  0
 13 14  1  0  0  0  0
 13 43  1  0  0  0  0
 14 15  2  0  0  0  0
 14 44  1  0  0  0  0
 15 30  1  0  0  0  0
 15 16  1  0  0  0  0
 16 17  2  0  0  0  0
 16 18  1  0  0  0  0
 18 28  2  0  0  0  0
 18 19  1  0  0  0  0
 19 20  2  0  0  0  0
 20 21  1  0  0  0  0
 20 45  1  0  0  0  0
 21 22  2  0  0  0  0
 21 46  1  0  0  0  0
 22 25  1  0  0  0  0
 22 23  1  0  0  0  0
 23 24  1  0  0  0  0
 24 47  1  0  0  0  0
 24 48  1  0  0  0  0
 24 49  1  0  0  0  0
 25 26  1  0  0  0  0
 25 27  2  0  0  0  0
 26 50  1  0  0  0  0
 27 19  1  0  0  0  0
 27 51  1  0  0  0  0
 28 29  1  0  0  0  0
 28 52  1  0  0  0  0
 30 29  1  0  0  0  0
 30 31  2  0  0  0  0
 31 12  1  0  0  0  0
 31 53  1  0  0  0  0
 32 54  1  0  0  0  0
M  END
>  <Mol_ID>
4372

>  <Formula>
C22H22O10

>  <MolWeight>
446.40408

>  <Cat>
S9088

>  <Name>
Calycosin-7-O-beta-D-glucoside

>  <Target>
Immunology & Inflammation related

>  <Form>
free base

>  <CAS>
20633-67-4

>  <URL>
https://www.selleckchem.com/products/calycosin-7-o-beta-d-glucoside.html

$$$$
