S9093 Nardosinone.cdx
 OpenBabel08302521193D

 40 42  0  0  0  0  0  0  0  0999 V2000
    1.8319   -0.2946   -1.0234 O   0  0  0  0  0  0  0  0  0  0  0  0
    1.0955   -1.3500   -0.3262 O   0  0  0  0  0  0  0  0  0  0  0  0
    0.1948   -0.7118    0.5983 C   0  0  1  0  0  0  0  0  0  0  0  0
    0.4705    0.7773    0.4959 C   0  0  1  0  0  0  0  0  0  0  0  0
    1.0436    0.9116   -0.9194 C   0  0  0  0  0  0  0  0  0  0  0  0
   -1.1979   -1.2062    0.2539 C   0  0  0  0  0  0  0  0  0  0  0  0
   -2.3331   -0.3023    0.6354 C   0  0  0  0  0  0  0  0  0  0  0  0
   -2.0688    1.1304    0.9358 C   0  0  0  0  0  0  0  0  0  0  0  0
   -3.1453    1.9082    1.1805 C   0  0  0  0  0  0  0  0  0  0  0  0
   -3.0365    3.3895    1.3482 C   0  0  0  0  0  0  0  0  0  0  0  0
   -1.9181    3.8956    0.4564 C   0  0  0  0  0  0  0  0  0  0  0  0
   -0.5659    3.1749    0.6614 C   0  0  2  0  0  0  0  0  0  0  0  0
   -0.6559    1.6668    1.1244 C   0  0  2  0  0  0  0  0  0  0  0  0
   -3.4858   -0.7380    0.6078 O   0  0  0  0  0  0  0  0  0  0  0  0
    0.3734    4.0443    1.5089 C   0  0  0  0  0  0  0  0  0  0  0  0
   -0.4517    1.5443    2.6768 C   0  0  0  0  0  0  0  0  0  0  0  0
    2.0685    2.0472   -1.0788 C   0  0  0  0  0  0  0  0  0  0  0  0
    0.0557    0.9199   -2.0826 C   0  0  0  0  0  0  0  0  0  0  0  0
    0.4605   -1.0756    1.5961 H   0  0  0  0  0  0  0  0  0  0  0  0
    1.3551    0.9340    1.1381 H   0  0  0  0  0  0  0  0  0  0  0  0
   -1.2957   -1.4217   -0.8150 H   0  0  0  0  0  0  0  0  0  0  0  0
   -1.3586   -2.1622    0.7668 H   0  0  0  0  0  0  0  0  0  0  0  0
   -4.1510    1.4930    1.2159 H   0  0  0  0  0  0  0  0  0  0  0  0
   -2.8820    3.6724    2.3944 H   0  0  0  0  0  0  0  0  0  0  0  0
   -3.9745    3.8520    1.0194 H   0  0  0  0  0  0  0  0  0  0  0  0
   -1.8142    4.9793    0.5440 H   0  0  0  0  0  0  0  0  0  0  0  0
   -2.2242    3.7193   -0.5886 H   0  0  0  0  0  0  0  0  0  0  0  0
   -0.1439    3.1923   -0.3410 H   0  0  0  0  0  0  0  0  0  0  0  0
    1.3753    3.6056    1.5611 H   0  0  0  0  0  0  0  0  0  0  0  0
    0.4789    5.0406    1.0673 H   0  0  0  0  0  0  0  0  0  0  0  0
   -0.0066    4.1790    2.5257 H   0  0  0  0  0  0  0  0  0  0  0  0
   -0.5686    0.5071    3.0182 H   0  0  0  0  0  0  0  0  0  0  0  0
    0.5508    1.8591    2.9861 H   0  0  0  0  0  0  0  0  0  0  0  0
   -1.1716    2.1450    3.2439 H   0  0  0  0  0  0  0  0  0  0  0  0
    2.7256    1.8533   -1.9353 H   0  0  0  0  0  0  0  0  0  0  0  0
    1.6166    3.0274   -1.2447 H   0  0  0  0  0  0  0  0  0  0  0  0
    2.7283    2.1148   -0.2073 H   0  0  0  0  0  0  0  0  0  0  0  0
   -0.4213   -0.0460   -2.2326 H   0  0  0  0  0  0  0  0  0  0  0  0
   -0.7146    1.6910   -1.9692 H   0  0  0  0  0  0  0  0  0  0  0  0
    0.5885    1.1218   -3.0251 H   0  0  0  0  0  0  0  0  0  0  0  0
  1  2  1  0  0  0  0
  1  5  1  0  0  0  0
  2  3  1  0  0  0  0
  3  4  1  0  0  0  0
  3  6  1  0  0  0  0
  3 19  1  1  0  0  0
  4  5  1  0  0  0  0
  4 13  1  0  0  0  0
  4 20  1  1  0  0  0
  5 17  1  0  0  0  0
  5 18  1  0  0  0  0
  6  7  1  0  0  0  0
  6 21  1  0  0  0  0
  6 22  1  0  0  0  0
  7  8  1  0  0  0  0
  7 14  2  0  0  0  0
  8  9  2  0  0  0  0
  8 13  1  0  0  0  0
  9 10  1  0  0  0  0
  9 23  1  0  0  0  0
 10 11  1  0  0  0  0
 10 24  1  0  0  0  0
 10 25  1  0  0  0  0
 11 12  1  0  0  0  0
 11 26  1  0  0  0  0
 11 27  1  0  0  0  0
 12 13  1  0  0  0  0
 12 15  1  0  0  0  0
 12 28  1  6  0  0  0
 13 16  1  1  0  0  0
 15 29  1  0  0  0  0
 15 30  1  0  0  0  0
 15 31  1  0  0  0  0
 16 32  1  0  0  0  0
 16 33  1  0  0  0  0
 16 34  1  0  0  0  0
 17 35  1  0  0  0  0
 17 36  1  0  0  0  0
 17 37  1  0  0  0  0
 18 38  1  0  0  0  0
 18 39  1  0  0  0  0
 18 40  1  0  0  0  0
M  END
>  <Mol_ID>
4377

>  <Formula>
C15H22O3

>  <MolWeight>
250.33338

>  <Cat>
S9093

>  <Name>
Nardosinone

>  <Target>
Others

>  <Form>
free base

>  <CAS>
23720-80-1

>  <URL>
https://www.selleckchem.com/products/nardosinone.html

$$$$
