S9091 10-Gingerol.cdx
 OpenBabel08302521193D

 59 59  0  0  0  0  0  0  0  0999 V2000
   -4.1280    4.3926    3.7863 C   0  0  0  0  0  0  0  0  0  0  0  0
   -5.2621    5.0779    4.2489 C   0  0  0  0  0  0  0  0  0  0  0  0
   -3.2312    5.0745    2.9360 C   0  0  0  0  0  0  0  0  0  0  0  0
   -3.7385    2.9970    4.2336 C   0  0  0  0  0  0  0  0  0  0  0  0
   -5.4823    6.4132    3.8813 C   0  0  0  0  0  0  0  0  0  0  0  0
   -3.4370    6.4088    2.5816 C   0  0  0  0  0  0  0  0  0  0  0  0
   -4.7922    2.0477    4.8066 C   0  0  0  0  0  0  0  0  0  0  0  0
   -4.5486    7.0699    3.0737 C   0  0  0  0  0  0  0  0  0  0  0  0
   -6.5399    7.1893    4.2860 O   0  0  0  0  0  0  0  0  0  0  0  0
   -5.8664    1.5955    3.8279 C   0  0  0  0  0  0  0  0  0  0  0  0
   -4.7119    8.3902    2.7561 O   0  0  0  0  0  0  0  0  0  0  0  0
   -7.7326    6.4755    4.5945 C   0  0  0  0  0  0  0  0  0  0  0  0
   -5.4705    0.7422    2.6229 C   0  0  0  0  0  0  0  0  0  0  0  0
   -7.0428    1.9096    4.0248 O   0  0  0  0  0  0  0  0  0  0  0  0
   -6.0406   -0.6842    2.6745 C   0  0  2  0  0  0  0  0  0  0  0  0
   -5.4891   -1.6247    1.5782 C   0  0  0  0  0  0  0  0  0  0  0  0
   -7.4618   -0.7098    2.6058 O   0  0  0  0  0  0  0  0  0  0  0  0
   -5.9776   -1.3792    0.1340 C   0  0  0  0  0  0  0  0  0  0  0  0
   -5.4101   -2.4502   -0.8210 C   0  0  0  0  0  0  0  0  0  0  0  0
   -5.8400   -2.2739   -2.2872 C   0  0  0  0  0  0  0  0  0  0  0  0
   -5.1996   -3.3454   -3.1881 C   0  0  0  0  0  0  0  0  0  0  0  0
   -5.6033   -3.2088   -4.6636 C   0  0  0  0  0  0  0  0  0  0  0  0
   -4.9317   -4.2859   -5.5292 C   0  0  0  0  0  0  0  0  0  0  0  0
   -5.3409   -4.1853   -6.9946 C   0  0  0  0  0  0  0  0  0  0  0  0
   -4.6584   -5.2500   -7.8448 C   0  0  0  0  0  0  0  0  0  0  0  0
   -5.9515    4.5865    4.9290 H   0  0  0  0  0  0  0  0  0  0  0  0
   -2.3367    4.5764    2.5683 H   0  0  0  0  0  0  0  0  0  0  0  0
   -3.2316    2.4947    3.4009 H   0  0  0  0  0  0  0  0  0  0  0  0
   -2.9793    3.1425    5.0143 H   0  0  0  0  0  0  0  0  0  0  0  0
   -2.7282    6.9298    1.9458 H   0  0  0  0  0  0  0  0  0  0  0  0
   -4.2961    1.1461    5.1869 H   0  0  0  0  0  0  0  0  0  0  0  0
   -5.2839    2.5065    5.6736 H   0  0  0  0  0  0  0  0  0  0  0  0
   -5.4953    8.6767    3.2646 H   0  0  0  0  0  0  0  0  0  0  0  0
   -7.9495    5.7020    3.8500 H   0  0  0  0  0  0  0  0  0  0  0  0
   -7.6747    6.0508    5.6010 H   0  0  0  0  0  0  0  0  0  0  0  0
   -8.5591    7.1921    4.5770 H   0  0  0  0  0  0  0  0  0  0  0  0
   -5.8213    1.2783    1.7354 H   0  0  0  0  0  0  0  0  0  0  0  0
   -4.3782    0.6933    2.5758 H   0  0  0  0  0  0  0  0  0  0  0  0
   -5.7740   -1.1226    3.6444 H   0  0  0  0  0  0  0  0  0  0  0  0
   -4.3931   -1.6058    1.6021 H   0  0  0  0  0  0  0  0  0  0  0  0
   -5.7921   -2.6462    1.8465 H   0  0  0  0  0  0  0  0  0  0  0  0
   -7.7639   -0.0278    1.9820 H   0  0  0  0  0  0  0  0  0  0  0  0
   -7.0727   -1.4128    0.0956 H   0  0  0  0  0  0  0  0  0  0  0  0
   -5.6675   -0.3836   -0.2001 H   0  0  0  0  0  0  0  0  0  0  0  0
   -4.3151   -2.4330   -0.7649 H   0  0  0  0  0  0  0  0  0  0  0  0
   -5.7318   -3.4415   -0.4775 H   0  0  0  0  0  0  0  0  0  0  0  0
   -6.9320   -2.3389   -2.3622 H   0  0  0  0  0  0  0  0  0  0  0  0
   -5.5468   -1.2783   -2.6405 H   0  0  0  0  0  0  0  0  0  0  0  0
   -4.1075   -3.2789   -3.1083 H   0  0  0  0  0  0  0  0  0  0  0  0
   -5.4863   -4.3414   -2.8287 H   0  0  0  0  0  0  0  0  0  0  0  0
   -6.6928   -3.2920   -4.7562 H   0  0  0  0  0  0  0  0  0  0  0  0
   -5.3201   -2.2161   -5.0333 H   0  0  0  0  0  0  0  0  0  0  0  0
   -3.8422   -4.1920   -5.4488 H   0  0  0  0  0  0  0  0  0  0  0  0
   -5.1987   -5.2787   -5.1482 H   0  0  0  0  0  0  0  0  0  0  0  0
   -6.4268   -4.2991   -7.0946 H   0  0  0  0  0  0  0  0  0  0  0  0
   -5.0831   -3.1973   -7.3970 H   0  0  0  0  0  0  0  0  0  0  0  0
   -4.8857   -6.2559   -7.4748 H   0  0  0  0  0  0  0  0  0  0  0  0
   -4.9959   -5.1907   -8.8846 H   0  0  0  0  0  0  0  0  0  0  0  0
   -3.5708   -5.1224   -7.8376 H   0  0  0  0  0  0  0  0  0  0  0  0
  1  2  2  0  0  0  0
  1  3  1  0  0  0  0
  1  4  1  0  0  0  0
  2  5  1  0  0  0  0
  2 26  1  0  0  0  0
  3  6  2  0  0  0  0
  3 27  1  0  0  0  0
  4  7  1  0  0  0  0
  4 28  1  0  0  0  0
  4 29  1  0  0  0  0
  5  8  2  0  0  0  0
  5  9  1  0  0  0  0
  6  8  1  0  0  0  0
  6 30  1  0  0  0  0
  7 10  1  0  0  0  0
  7 31  1  0  0  0  0
  7 32  1  0  0  0  0
  8 11  1  0  0  0  0
  9 12  1  0  0  0  0
 10 13  1  0  0  0  0
 10 14  2  0  0  0  0
 11 33  1  0  0  0  0
 12 34  1  0  0  0  0
 12 35  1  0  0  0  0
 12 36  1  0  0  0  0
 13 37  1  0  0  0  0
 13 38  1  0  0  0  0
 15 17  1  0  0  0  0
 15 39  1  1  0  0  0
 15 16  1  0  0  0  0
 15 13  1  0  0  0  0
 16 18  1  0  0  0  0
 16 40  1  0  0  0  0
 16 41  1  0  0  0  0
 17 42  1  0  0  0  0
 18 19  1  0  0  0  0
 18 43  1  0  0  0  0
 18 44  1  0  0  0  0
 19 20  1  0  0  0  0
 19 45  1  0  0  0  0
 19 46  1  0  0  0  0
 20 21  1  0  0  0  0
 20 47  1  0  0  0  0
 20 48  1  0  0  0  0
 21 22  1  0  0  0  0
 21 49  1  0  0  0  0
 21 50  1  0  0  0  0
 22 23  1  0  0  0  0
 22 51  1  0  0  0  0
 22 52  1  0  0  0  0
 23 24  1  0  0  0  0
 23 53  1  0  0  0  0
 23 54  1  0  0  0  0
 24 25  1  0  0  0  0
 24 55  1  0  0  0  0
 24 56  1  0  0  0  0
 25 57  1  0  0  0  0
 25 58  1  0  0  0  0
 25 59  1  0  0  0  0
M  END
>  <Mol_ID>
4375

>  <Formula>
C21H34O4

>  <MolWeight>
350.49226

>  <Cat>
S9091

>  <Name>
10-Gingerol

>  <Target>
Immunology & Inflammation related

>  <Form>
free base

>  <CAS>
23513-15-7

>  <URL>
https://www.selleckchem.com/products/10-gingerol.html

$$$$
