S9107 Glycitein.cdx
 OpenBabel08302521193D

 33 35  0  0  0  0  0  0  0  0999 V2000
   -0.3694    0.4932    0.0147 C   0  0  0  0  0  0  0  0  0  0  0  0
    0.0814   -0.8184    0.0032 C   0  0  0  0  0  0  0  0  0  0  0  0
   -1.8283    0.7425    0.0050 C   0  0  0  0  0  0  0  0  0  0  0  0
    0.5575    1.5452    0.0328 C   0  0  0  0  0  0  0  0  0  0  0  0
    1.4476   -1.0803   -0.0016 C   0  0  0  0  0  0  0  0  0  0  0  0
   -0.7532   -1.9043   -0.0054 O   0  0  0  0  0  0  0  0  0  0  0  0
   -2.7016   -0.4672   -0.0001 C   0  0  0  0  0  0  0  0  0  0  0  0
   -2.2767    1.8794   -0.0014 O   0  0  0  0  0  0  0  0  0  0  0  0
    1.9467    1.2972    0.0302 C   0  0  0  0  0  0  0  0  0  0  0  0
    2.3787   -0.0359    0.0114 C   0  0  0  0  0  0  0  0  0  0  0  0
   -2.1042   -1.6671   -0.0040 C   0  0  0  0  0  0  0  0  0  0  0  0
   -4.1670   -0.3845   -0.0304 C   0  0  0  0  0  0  0  0  0  0  0  0
    2.6697    2.4556    0.0592 O   0  0  0  0  0  0  0  0  0  0  0  0
    3.6647   -0.4923    0.0194 O   0  0  0  0  0  0  0  0  0  0  0  0
   -4.9125   -0.3729    1.1576 C   0  0  0  0  0  0  0  0  0  0  0  0
   -4.8408   -0.3587   -1.2591 C   0  0  0  0  0  0  0  0  0  0  0  0
    4.0842    2.4295    0.0659 C   0  0  0  0  0  0  0  0  0  0  0  0
   -6.3100   -0.3145    1.1173 C   0  0  0  0  0  0  0  0  0  0  0  0
   -6.2359   -0.3035   -1.2993 C   0  0  0  0  0  0  0  0  0  0  0  0
   -6.9587   -0.2759   -0.1131 C   0  0  0  0  0  0  0  0  0  0  0  0
   -8.3181   -0.2095   -0.2011 O   0  0  0  0  0  0  0  0  0  0  0  0
    0.1980    2.5739    0.0549 H   0  0  0  0  0  0  0  0  0  0  0  0
    1.7982   -2.1082   -0.0185 H   0  0  0  0  0  0  0  0  0  0  0  0
   -2.6407   -2.6095   -0.0135 H   0  0  0  0  0  0  0  0  0  0  0  0
    4.2902    0.2005   -0.2150 H   0  0  0  0  0  0  0  0  0  0  0  0
   -4.4111   -0.4036    2.1224 H   0  0  0  0  0  0  0  0  0  0  0  0
   -4.2849   -0.3750   -2.1937 H   0  0  0  0  0  0  0  0  0  0  0  0
    4.4675    1.8941    0.9404 H   0  0  0  0  0  0  0  0  0  0  0  0
    4.4672    2.0175   -0.8732 H   0  0  0  0  0  0  0  0  0  0  0  0
    4.4481    3.4594    0.1299 H   0  0  0  0  0  0  0  0  0  0  0  0
   -6.8683   -0.2985    2.0482 H   0  0  0  0  0  0  0  0  0  0  0  0
   -6.7548   -0.2743   -2.2532 H   0  0  0  0  0  0  0  0  0  0  0  0
   -8.6842   -0.1213    0.6940 H   0  0  0  0  0  0  0  0  0  0  0  0
  1  2  2  0  0  0  0
  1  3  1  0  0  0  0
  1  4  1  0  0  0  0
  2  5  1  0  0  0  0
  2  6  1  0  0  0  0
  3  7  1  0  0  0  0
  3  8  2  0  0  0  0
  4  9  2  0  0  0  0
  4 22  1  0  0  0  0
  5 10  2  0  0  0  0
  5 23  1  0  0  0  0
  6 11  1  0  0  0  0
  7 12  1  0  0  0  0
  7 11  2  0  0  0  0
  9 13  1  0  0  0  0
  9 10  1  0  0  0  0
 10 14  1  0  0  0  0
 11 24  1  0  0  0  0
 12 15  2  0  0  0  0
 12 16  1  0  0  0  0
 13 17  1  0  0  0  0
 14 25  1  0  0  0  0
 15 18  1  0  0  0  0
 15 26  1  0  0  0  0
 16 19  2  0  0  0  0
 16 27  1  0  0  0  0
 17 28  1  0  0  0  0
 17 29  1  0  0  0  0
 17 30  1  0  0  0  0
 18 20  2  0  0  0  0
 18 31  1  0  0  0  0
 19 20  1  0  0  0  0
 19 32  1  0  0  0  0
 20 21  1  0  0  0  0
 21 33  1  0  0  0  0
M  END
>  <Mol_ID>
4388

>  <Formula>
C16H12O5

>  <MolWeight>
284.26348

>  <Cat>
S9107

>  <Name>
Glycitein

>  <Target>
ROS

>  <Form>
free base

>  <CAS>
40957-83-3

>  <URL>
https://www.selleckchem.com/products/glycitein.html

$$$$
