S9118 Beta-Asarone.cdx
 OpenBabel08302521193D

 31 31  0  0  0  0  0  0  0  0999 V2000
    1.3557   -0.2214    0.0773 C   0  0  0  0  0  0  0  0  0  0  0  0
    0.5323   -1.3582    0.1161 C   0  0  0  0  0  0  0  0  0  0  0  0
    0.7331    1.0365   -0.0247 C   0  0  0  0  0  0  0  0  0  0  0  0
    2.8239   -0.2081    0.0245 C   0  0  0  0  0  0  0  0  0  0  0  0
   -0.8705   -1.1944    0.0841 C   0  0  0  0  0  0  0  0  0  0  0  0
    0.8590   -2.6866    0.1335 O   0  0  0  0  0  0  0  0  0  0  0  0
   -0.6619    1.1900   -0.0328 C   0  0  0  0  0  0  0  0  0  0  0  0
    3.7025   -0.0563    1.0322 C   0  0  0  0  0  0  0  0  0  0  0  0
   -1.4858    0.0565    0.0036 C   0  0  0  0  0  0  0  0  0  0  0  0
    2.2095   -3.0978    0.1623 C   0  0  0  0  0  0  0  0  0  0  0  0
   -1.0815    2.4938   -0.1438 O   0  0  0  0  0  0  0  0  0  0  0  0
    3.4468    0.0584    2.4996 C   0  0  0  0  0  0  0  0  0  0  0  0
   -2.8389    0.2387   -0.0899 O   0  0  0  0  0  0  0  0  0  0  0  0
   -2.2728    2.8257    0.5636 C   0  0  0  0  0  0  0  0  0  0  0  0
   -3.6808   -0.9050   -0.0181 C   0  0  0  0  0  0  0  0  0  0  0  0
    1.3441    1.9362   -0.1192 H   0  0  0  0  0  0  0  0  0  0  0  0
    3.2143   -0.2746   -0.9926 H   0  0  0  0  0  0  0  0  0  0  0  0
   -1.4657   -2.1065    0.0972 H   0  0  0  0  0  0  0  0  0  0  0  0
    4.7568   -0.0200    0.7638 H   0  0  0  0  0  0  0  0  0  0  0  0
    2.7778   -2.7069   -0.6901 H   0  0  0  0  0  0  0  0  0  0  0  0
    2.6714   -2.8541    1.1194 H   0  0  0  0  0  0  0  0  0  0  0  0
    2.2163   -4.1881    0.0632 H   0  0  0  0  0  0  0  0  0  0  0  0
    4.1958   -0.5334    3.0409 H   0  0  0  0  0  0  0  0  0  0  0  0
    3.5592    1.0984    2.8224 H   0  0  0  0  0  0  0  0  0  0  0  0
    2.4608   -0.3069    2.7947 H   0  0  0  0  0  0  0  0  0  0  0  0
   -3.1534    2.6565   -0.0637 H   0  0  0  0  0  0  0  0  0  0  0  0
   -2.3552    2.2943    1.5184 H   0  0  0  0  0  0  0  0  0  0  0  0
   -2.2373    3.8963    0.7882 H   0  0  0  0  0  0  0  0  0  0  0  0
   -3.4605   -1.6184   -0.8185 H   0  0  0  0  0  0  0  0  0  0  0  0
   -3.6155   -1.3783    0.9673 H   0  0  0  0  0  0  0  0  0  0  0  0
   -4.7133   -0.5681   -0.1576 H   0  0  0  0  0  0  0  0  0  0  0  0
  1  2  2  0  0  0  0
  1  3  1  0  0  0  0
  1  4  1  0  0  0  0
  2  5  1  0  0  0  0
  2  6  1  0  0  0  0
  3  7  2  0  0  0  0
  3 16  1  0  0  0  0
  4  8  2  0  0  0  0
  4 17  1  0  0  0  0
  5  9  2  0  0  0  0
  5 18  1  0  0  0  0
  6 10  1  0  0  0  0
  7 11  1  0  0  0  0
  7  9  1  0  0  0  0
  8 12  1  0  0  0  0
  8 19  1  0  0  0  0
  9 13  1  0  0  0  0
 10 20  1  0  0  0  0
 10 21  1  0  0  0  0
 10 22  1  0  0  0  0
 11 14  1  0  0  0  0
 12 23  1  0  0  0  0
 12 24  1  0  0  0  0
 12 25  1  0  0  0  0
 13 15  1  0  0  0  0
 14 26  1  0  0  0  0
 14 27  1  0  0  0  0
 14 28  1  0  0  0  0
 15 29  1  0  0  0  0
 15 30  1  0  0  0  0
 15 31  1  0  0  0  0
M  END
>  <Mol_ID>
4397

>  <Formula>
C12H16O3

>  <MolWeight>
208.25364

>  <Cat>
S9118

>  <Name>
Beta-Asarone

>  <Target>
Others

>  <Form>
free base

>  <CAS>
5273-86-9

>  <URL>
https://www.selleckchem.com/products/beta-asarone.html

$$$$
