S9115 Wogonoside.cdx
 OpenBabel08302521193D

 53 56  0  0  0  0  0  0  0  0999 V2000
    8.7386   -0.0871   -0.5089 C   0  0  0  0  0  0  0  0  0  0  0  0
    2.8940   -0.3273   -0.0899 C   0  0  1  0  0  0  0  0  0  0  0  0
    9.7731   -1.0171   -0.6479 C   0  0  0  0  0  0  0  0  0  0  0  0
    4.7084   -1.8269    0.3731 C   0  0  2  0  0  0  0  0  0  0  0  0
    4.0879   -0.9522   -0.5614 O   0  0  0  0  0  0  0  0  0  0  0  0
    9.0090    1.2599   -0.4405 O   0  0  0  0  0  0  0  0  0  0  0  0
   11.1348   -0.4932   -0.9410 C   0  0  0  0  0  0  0  0  0  0  0  0
    4.9506   -1.2375    1.7840 C   0  0  1  0  0  0  0  0  0  0  0  0
    3.1646    0.4872    1.1770 C   0  0  2  0  0  0  0  0  0  0  0  0
   10.1685    1.7216   -1.0191 C   0  0  0  0  0  0  0  0  0  0  0  0
    3.7356   -0.4342    2.2673 C   0  0  2  0  0  0  0  0  0  0  0  0
   11.2260    0.9457   -1.2787 C   0  0  0  0  0  0  0  0  0  0  0  0
    7.3867   -0.4878   -0.4042 C   0  0  0  0  0  0  0  0  0  0  0  0
    7.0872   -1.8540   -0.3020 C   0  0  0  0  0  0  0  0  0  0  0  0
    9.4647   -2.3742   -0.5671 C   0  0  0  0  0  0  0  0  0  0  0  0
    5.8706   -2.4687   -0.1775 O   0  0  0  0  0  0  0  0  0  0  0  0
    8.1389   -2.7827   -0.3856 C   0  0  0  0  0  0  0  0  0  0  0  0
    2.3950    0.6158   -1.1773 C   0  0  0  0  0  0  0  0  0  0  0  0
   12.1506   -1.1743   -0.9635 O   0  0  0  0  0  0  0  0  0  0  0  0
   10.1213    3.1563   -1.3175 C   0  0  0  0  0  0  0  0  0  0  0  0
    3.0578    1.3830   -1.8543 O   0  0  0  0  0  0  0  0  0  0  0  0
    5.2590   -2.2814    2.7310 O   0  0  0  0  0  0  0  0  0  0  0  0
    1.9657    1.1258    1.6372 O   0  0  0  0  0  0  0  0  0  0  0  0
    4.0710    0.3414    3.4269 O   0  0  0  0  0  0  0  0  0  0  0  0
   10.4364   -3.3260   -0.6741 O   0  0  0  0  0  0  0  0  0  0  0  0
    6.3556    0.4179   -0.3909 O   0  0  0  0  0  0  0  0  0  0  0  0
    1.0564    0.5469   -1.3708 O   0  0  0  0  0  0  0  0  0  0  0  0
    9.7914    3.6034   -2.6045 C   0  0  0  0  0  0  0  0  0  0  0  0
   10.3010    4.0951   -0.2946 C   0  0  0  0  0  0  0  0  0  0  0  0
    6.5057    1.5469   -1.2594 C   0  0  0  0  0  0  0  0  0  0  0  0
   10.1605    5.4606   -0.5559 C   0  0  0  0  0  0  0  0  0  0  0  0
    9.6472    4.9697   -2.8625 C   0  0  0  0  0  0  0  0  0  0  0  0
    9.8329    5.8972   -1.8387 C   0  0  0  0  0  0  0  0  0  0  0  0
    2.1242   -1.0918    0.0824 H   0  0  0  0  0  0  0  0  0  0  0  0
    4.0082   -2.6636    0.5042 H   0  0  0  0  0  0  0  0  0  0  0  0
    5.8258   -0.5864    1.8036 H   0  0  0  0  0  0  0  0  0  0  0  0
    3.8856    1.2882    0.9720 H   0  0  0  0  0  0  0  0  0  0  0  0
    2.9542   -1.1226    2.6126 H   0  0  0  0  0  0  0  0  0  0  0  0
   12.1494    1.3036   -1.7134 H   0  0  0  0  0  0  0  0  0  0  0  0
    7.8983   -3.8422   -0.3263 H   0  0  0  0  0  0  0  0  0  0  0  0
    4.5049   -2.8925    2.7895 H   0  0  0  0  0  0  0  0  0  0  0  0
    1.5375    0.5687    2.3109 H   0  0  0  0  0  0  0  0  0  0  0  0
    4.8437    0.8970    3.2113 H   0  0  0  0  0  0  0  0  0  0  0  0
   10.0781   -4.2016   -0.4568 H   0  0  0  0  0  0  0  0  0  0  0  0
    0.8990    1.2187   -2.0707 H   0  0  0  0  0  0  0  0  0  0  0  0
    9.6157    2.8924   -3.4087 H   0  0  0  0  0  0  0  0  0  0  0  0
   10.5314    3.7678    0.7167 H   0  0  0  0  0  0  0  0  0  0  0  0
    7.1911    1.3676   -2.0969 H   0  0  0  0  0  0  0  0  0  0  0  0
    5.5361    1.7874   -1.6956 H   0  0  0  0  0  0  0  0  0  0  0  0
    6.8284    2.4125   -0.6711 H   0  0  0  0  0  0  0  0  0  0  0  0
   10.2938    6.1831    0.2455 H   0  0  0  0  0  0  0  0  0  0  0  0
    9.3766    5.3106   -3.8591 H   0  0  0  0  0  0  0  0  0  0  0  0
    9.7145    6.9596   -2.0382 H   0  0  0  0  0  0  0  0  0  0  0  0
  2  5  1  0  0  0  0
  2 18  1  0  0  0  0
  2 34  1  1  0  0  0
  3  1  2  0  0  0  0
  4 35  1  1  0  0  0
  4 16  1  0  0  0  0
  5  4  1  0  0  0  0
  6  1  1  0  0  0  0
  7  3  1  0  0  0  0
  7 12  1  0  0  0  0
  8  4  1  0  0  0  0
  8 22  1  0  0  0  0
  8 36  1  6  0  0  0
  9  2  1  0  0  0  0
  9 23  1  0  0  0  0
  9 11  1  0  0  0  0
  9 37  1  6  0  0  0
 10  6  1  0  0  0  0
 11  8  1  0  0  0  0
 11 24  1  0  0  0  0
 11 38  1  1  0  0  0
 12 10  2  0  0  0  0
 12 39  1  0  0  0  0
 13  1  1  0  0  0  0
 14 13  2  0  0  0  0
 15  3  1  0  0  0  0
 16 14  1  0  0  0  0
 17 14  1  0  0  0  0
 17 15  2  0  0  0  0
 17 40  1  0  0  0  0
 19  7  2  0  0  0  0
 20 10  1  0  0  0  0
 21 18  2  0  0  0  0
 22 41  1  0  0  0  0
 23 42  1  0  0  0  0
 24 43  1  0  0  0  0
 25 15  1  0  0  0  0
 25 44  1  0  0  0  0
 26 13  1  0  0  0  0
 27 18  1  0  0  0  0
 27 45  1  0  0  0  0
 28 20  2  0  0  0  0
 28 46  1  0  0  0  0
 29 20  1  0  0  0  0
 29 47  1  0  0  0  0
 30 26  1  0  0  0  0
 30 48  1  0  0  0  0
 30 49  1  0  0  0  0
 30 50  1  0  0  0  0
 31 29  2  0  0  0  0
 31 51  1  0  0  0  0
 32 28  1  0  0  0  0
 32 52  1  0  0  0  0
 33 31  1  0  0  0  0
 33 32  2  0  0  0  0
 33 53  1  0  0  0  0
M  END
>  <Mol_ID>
4396

>  <Formula>
C22H20O11

>  <MolWeight>
460.3876

>  <Cat>
S9115

>  <Name>
Wogonoside

>  <Synonyms>
Oroxindin, Wogonin 7-O-glucuronide, Glychionide B

>  <Target>
Immunology & Inflammation related

>  <Form>
free base

>  <CAS>
51059-44-0

>  <URL>
https://www.selleckchem.com/products/wogonoside.html

$$$$
