S9126 Schizandrol B.cdx
 OpenBabel08302521193D

 58 61  0  0  0  0  0  0  0  0999 V2000
    0.7841   -0.7199   -0.0080 C   0  0  0  0  0  0  0  0  0  0  0  0
   -0.6993   -0.7292    0.0862 C   0  0  0  0  0  0  0  0  0  0  0  0
    1.4953    0.3570    0.6284 C   0  0  0  0  0  0  0  0  0  0  0  0
    1.5441   -1.7326   -0.6600 C   0  0  0  0  0  0  0  0  0  0  0  0
   -1.4339    0.2411   -0.6392 C   0  0  0  0  0  0  0  0  0  0  0  0
   -1.4277   -1.6565    0.8737 C   0  0  0  0  0  0  0  0  0  0  0  0
    2.9005    0.4300    0.5863 C   0  0  0  0  0  0  0  0  0  0  0  0
    0.7829    1.4751    1.3674 C   0  0  0  0  0  0  0  0  0  0  0  0
    2.9303   -1.6096   -0.6645 C   0  0  0  0  0  0  0  0  0  0  0  0
   -2.8398    0.1696   -0.6964 C   0  0  0  0  0  0  0  0  0  0  0  0
   -0.7958    1.4539   -1.2995 C   0  0  0  0  0  0  0  0  0  0  0  0
   -2.8540   -1.6897    0.8303 C   0  0  0  0  0  0  0  0  0  0  0  0
    3.5835   -0.5608   -0.0663 C   0  0  0  0  0  0  0  0  0  0  0  0
    0.6190    2.7263    0.4826 C   0  0  1  0  0  0  0  0  0  0  0  0
    3.8152   -2.4885   -1.2276 O   0  0  0  0  0  0  0  0  0  0  0  0
   -3.5622   -0.7630    0.0438 C   0  0  0  0  0  0  0  0  0  0  0  0
   -0.6760    2.7230   -0.3913 C   0  0  2  0  0  0  0  0  0  0  0  0
   -3.4367   -2.6281    1.6583 O   0  0  0  0  0  0  0  0  0  0  0  0
    4.9350   -0.6323   -0.1854 O   0  0  0  0  0  0  0  0  0  0  0  0
    0.7497    3.9740    1.3756 C   0  0  0  0  0  0  0  0  0  0  0  0
    5.0666   -1.8168   -0.9943 C   0  0  0  0  0  0  0  0  0  0  0  0
   -4.9320   -0.7698    0.0746 O   0  0  0  0  0  0  0  0  0  0  0  0
   -1.9495    2.9871    0.4357 C   0  0  0  0  0  0  0  0  0  0  0  0
   -0.5656    3.8273   -1.3176 O   0  0  0  0  0  0  0  0  0  0  0  0
   -4.7047   -3.1480    1.2790 C   0  0  0  0  0  0  0  0  0  0  0  0
   -5.6331    0.2622   -0.6114 C   0  0  0  0  0  0  0  0  0  0  0  0
    1.1084   -2.9088   -1.2098 O   0  0  0  0  0  0  0  0  0  0  0  0
   -0.1305   -2.9439   -1.8976 C   0  0  0  0  0  0  0  0  0  0  0  0
   -0.8571   -2.6394    1.6603 O   0  0  0  0  0  0  0  0  0  0  0  0
    0.2987   -2.2959    2.4162 C   0  0  0  0  0  0  0  0  0  0  0  0
    3.4426    1.2445    1.0579 H   0  0  0  0  0  0  0  0  0  0  0  0
    1.3936    1.7093    2.2510 H   0  0  0  0  0  0  0  0  0  0  0  0
   -0.1696    1.1459    1.7941 H   0  0  0  0  0  0  0  0  0  0  0  0
   -3.3529    0.9082   -1.3068 H   0  0  0  0  0  0  0  0  0  0  0  0
   -1.3987    1.7118   -2.1837 H   0  0  0  0  0  0  0  0  0  0  0  0
    0.1772    1.2030   -1.7410 H   0  0  0  0  0  0  0  0  0  0  0  0
    1.4685    2.7918   -0.2128 H   0  0  0  0  0  0  0  0  0  0  0  0
    1.7287    3.9854    1.8689 H   0  0  0  0  0  0  0  0  0  0  0  0
    0.6750    4.8981    0.7962 H   0  0  0  0  0  0  0  0  0  0  0  0
   -0.0103    3.9917    2.1632 H   0  0  0  0  0  0  0  0  0  0  0  0
    5.4929   -1.5288   -1.9622 H   0  0  0  0  0  0  0  0  0  0  0  0
    5.7574   -2.5074   -0.4981 H   0  0  0  0  0  0  0  0  0  0  0  0
   -1.9225    3.9702    0.9174 H   0  0  0  0  0  0  0  0  0  0  0  0
   -2.8338    3.0137   -0.2109 H   0  0  0  0  0  0  0  0  0  0  0  0
   -2.1075    2.2388    1.2182 H   0  0  0  0  0  0  0  0  0  0  0  0
   -0.6788    4.6575   -0.8250 H   0  0  0  0  0  0  0  0  0  0  0  0
   -5.5112   -2.4715    1.5786 H   0  0  0  0  0  0  0  0  0  0  0  0
   -4.7507   -3.3851    0.2105 H   0  0  0  0  0  0  0  0  0  0  0  0
   -4.8616   -4.0806    1.8299 H   0  0  0  0  0  0  0  0  0  0  0  0
   -5.3201    1.2571   -0.2752 H   0  0  0  0  0  0  0  0  0  0  0  0
   -5.5169    0.1555   -1.6951 H   0  0  0  0  0  0  0  0  0  0  0  0
   -6.6972    0.1601   -0.3779 H   0  0  0  0  0  0  0  0  0  0  0  0
   -0.9360   -3.2267   -1.2178 H   0  0  0  0  0  0  0  0  0  0  0  0
   -0.3458   -2.0099   -2.4233 H   0  0  0  0  0  0  0  0  0  0  0  0
   -0.0637   -3.7388   -2.6464 H   0  0  0  0  0  0  0  0  0  0  0  0
    1.2041   -2.5504    1.8607 H   0  0  0  0  0  0  0  0  0  0  0  0
    0.3047   -1.2499    2.7385 H   0  0  0  0  0  0  0  0  0  0  0  0
    0.3148   -2.9143    3.3182 H   0  0  0  0  0  0  0  0  0  0  0  0
  1  2  1  0  0  0  0
  1  3  1  0  0  0  0
  1  4  2  0  0  0  0
  2  5  2  0  0  0  0
  2  6  1  0  0  0  0
  3  7  2  0  0  0  0
  3  8  1  0  0  0  0
  4  9  1  0  0  0  0
  4 27  1  0  0  0  0
  5 10  1  0  0  0  0
  5 11  1  0  0  0  0
  6 12  2  0  0  0  0
  6 29  1  0  0  0  0
  7 13  1  0  0  0  0
  7 31  1  0  0  0  0
  8 14  1  0  0  0  0
  8 32  1  0  0  0  0
  8 33  1  0  0  0  0
  9 15  1  0  0  0  0
  9 13  2  0  0  0  0
 10 16  2  0  0  0  0
 10 34  1  0  0  0  0
 11 17  1  0  0  0  0
 11 35  1  0  0  0  0
 11 36  1  0  0  0  0
 12 18  1  0  0  0  0
 12 16  1  0  0  0  0
 13 19  1  0  0  0  0
 14 17  1  0  0  0  0
 14 37  1  6  0  0  0
 14 20  1  0  0  0  0
 15 21  1  0  0  0  0
 16 22  1  0  0  0  0
 17 23  1  0  0  0  0
 17 24  1  6  0  0  0
 18 25  1  0  0  0  0
 19 21  1  0  0  0  0
 20 38  1  0  0  0  0
 20 39  1  0  0  0  0
 20 40  1  0  0  0  0
 21 41  1  0  0  0  0
 21 42  1  0  0  0  0
 22 26  1  0  0  0  0
 23 43  1  0  0  0  0
 23 44  1  0  0  0  0
 23 45  1  0  0  0  0
 24 46  1  0  0  0  0
 25 47  1  0  0  0  0
 25 48  1  0  0  0  0
 25 49  1  0  0  0  0
 26 50  1  0  0  0  0
 26 51  1  0  0  0  0
 26 52  1  0  0  0  0
 27 28  1  0  0  0  0
 28 53  1  0  0  0  0
 28 54  1  0  0  0  0
 28 55  1  0  0  0  0
 29 30  1  0  0  0  0
 30 56  1  0  0  0  0
 30 57  1  0  0  0  0
 30 58  1  0  0  0  0
M  END
>  <Mol_ID>
4404

>  <Formula>
C23H28O7

>  <MolWeight>
416.46422

>  <Cat>
S9126

>  <Name>
Schizandrol B

>  <Synonyms>
Gomisin A, Besigomsin, Wuweizi alcohol B, Gamma-Schisandrin

>  <Target>
Others

>  <Form>
free base

>  <CAS>
58546-54-6

>  <URL>
https://www.selleckchem.com/products/schizandrol-b.html

$$$$
