S9135 Artemisic acid.cdx
 OpenBabel08302521193D

 39 40  0  0  0  0  0  0  0  0999 V2000
    0.0891   -0.7984    0.4558 C   0  0  2  0  0  0  0  0  0  0  0  0
   -0.8134   -1.3118   -0.7218 C   0  0  1  0  0  0  0  0  0  0  0  0
   -0.0325    0.7182    0.7482 C   0  0  2  0  0  0  0  0  0  0  0  0
    1.5297   -1.2053    0.3270 C   0  0  0  0  0  0  0  0  0  0  0  0
   -2.2662   -0.8722   -0.4121 C   0  0  0  0  0  0  0  0  0  0  0  0
   -0.3532   -1.0149   -2.1590 C   0  0  0  0  0  0  0  0  0  0  0  0
   -1.4973    1.1934    0.8893 C   0  0  1  0  0  0  0  0  0  0  0  0
    0.7667    1.5279   -0.2851 C   0  0  0  0  0  0  0  0  0  0  0  0
    2.5092   -0.3497   -0.0201 C   0  0  0  0  0  0  0  0  0  0  0  0
   -2.4180    0.6354   -0.1963 C   0  0  0  0  0  0  0  0  0  0  0  0
    0.9529   -1.5081   -2.7003 C   0  0  0  0  0  0  0  0  0  0  0  0
   -1.0564   -0.3382   -3.0903 C   0  0  0  0  0  0  0  0  0  0  0  0
   -2.0487    0.8447    2.2836 C   0  0  0  0  0  0  0  0  0  0  0  0
    2.2441    1.1060   -0.3201 C   0  0  0  0  0  0  0  0  0  0  0  0
    3.9302   -0.8233   -0.1412 C   0  0  0  0  0  0  0  0  0  0  0  0
    1.3144   -2.7302   -2.2642 O   0  0  0  0  0  0  0  0  0  0  0  0
    1.6065   -0.9058   -3.5397 O   0  0  0  0  0  0  0  0  0  0  0  0
   -0.2719   -1.3096    1.3604 H   0  0  0  0  0  0  0  0  0  0  0  0
   -0.8399   -2.4083   -0.6446 H   0  0  0  0  0  0  0  0  0  0  0  0
    0.4596    0.9104    1.7138 H   0  0  0  0  0  0  0  0  0  0  0  0
    1.7790   -2.2428    0.5409 H   0  0  0  0  0  0  0  0  0  0  0  0
   -2.5996   -1.3933    0.4956 H   0  0  0  0  0  0  0  0  0  0  0  0
   -2.9501   -1.2087   -1.2009 H   0  0  0  0  0  0  0  0  0  0  0  0
   -1.5221    2.2882    0.8209 H   0  0  0  0  0  0  0  0  0  0  0  0
    0.3313    1.4254   -1.2843 H   0  0  0  0  0  0  0  0  0  0  0  0
    0.7129    2.5987   -0.0507 H   0  0  0  0  0  0  0  0  0  0  0  0
   -2.2184    1.1818   -1.1213 H   0  0  0  0  0  0  0  0  0  0  0  0
   -3.4656    0.8523    0.0497 H   0  0  0  0  0  0  0  0  0  0  0  0
   -2.0404    0.0765   -2.9178 H   0  0  0  0  0  0  0  0  0  0  0  0
   -0.6591   -0.1546   -4.0878 H   0  0  0  0  0  0  0  0  0  0  0  0
   -2.0016   -0.2276    2.4930 H   0  0  0  0  0  0  0  0  0  0  0  0
   -1.4804    1.3651    3.0615 H   0  0  0  0  0  0  0  0  0  0  0  0
   -3.0944    1.1594    2.3760 H   0  0  0  0  0  0  0  0  0  0  0  0
    2.6554    1.3573   -1.3055 H   0  0  0  0  0  0  0  0  0  0  0  0
    2.7930    1.7067    0.4159 H   0  0  0  0  0  0  0  0  0  0  0  0
    4.3436   -1.0548    0.8460 H   0  0  0  0  0  0  0  0  0  0  0  0
    3.9870   -1.7215   -0.7662 H   0  0  0  0  0  0  0  0  0  0  0  0
    4.5672   -0.0632   -0.6038 H   0  0  0  0  0  0  0  0  0  0  0  0
    0.7525   -3.1024   -1.5675 H   0  0  0  0  0  0  0  0  0  0  0  0
  1  2  1  0  0  0  0
  1  3  1  0  0  0  0
  1  4  1  0  0  0  0
  1 18  1  1  0  0  0
  2  5  1  0  0  0  0
  2 19  1  1  0  0  0
  2  6  1  0  0  0  0
  3  7  1  0  0  0  0
  3  8  1  0  0  0  0
  3 20  1  1  0  0  0
  4  9  2  0  0  0  0
  4 21  1  0  0  0  0
  5 10  1  0  0  0  0
  5 22  1  0  0  0  0
  5 23  1  0  0  0  0
  6 11  1  0  0  0  0
  6 12  2  0  0  0  0
  7 10  1  0  0  0  0
  7 24  1  6  0  0  0
  7 13  1  0  0  0  0
  8 14  1  0  0  0  0
  8 25  1  0  0  0  0
  8 26  1  0  0  0  0
  9 15  1  0  0  0  0
  9 14  1  0  0  0  0
 10 27  1  0  0  0  0
 10 28  1  0  0  0  0
 11 16  1  0  0  0  0
 11 17  2  0  0  0  0
 12 29  1  0  0  0  0
 12 30  1  0  0  0  0
 13 31  1  0  0  0  0
 13 32  1  0  0  0  0
 13 33  1  0  0  0  0
 14 34  1  0  0  0  0
 14 35  1  0  0  0  0
 15 36  1  0  0  0  0
 15 37  1  0  0  0  0
 15 38  1  0  0  0  0
 16 39  1  0  0  0  0
M  END
>  <Mol_ID>
4411

>  <Formula>
C15H22O2

>  <MolWeight>
234.33398

>  <Cat>
S9135

>  <Name>
Artemisic acid

>  <Synonyms>
Artemisinic acid

>  <Target>
Bacterial

>  <Form>
free base

>  <CAS>
80286-58-4

>  <URL>
https://www.selleckchem.com/products/artemisic-acid.html

$$$$
