S9140 Pulegone.cdx
 OpenBabel08302521193D

 27 27  0  0  0  0  0  0  0  0999 V2000
    3.0371    0.5182    1.4463 C   0  0  0  0  0  0  0  0  0  0  0  0
    2.5493    0.1281    0.0523 C   0  0  1  0  0  0  0  0  0  0  0  0
    3.0057    1.1550   -0.9925 C   0  0  0  0  0  0  0  0  0  0  0  0
    2.6985    0.7020   -2.4074 C   0  0  0  0  0  0  0  0  0  0  0  0
    2.2324    1.4621   -3.2492 O   0  0  0  0  0  0  0  0  0  0  0  0
    3.0773   -0.7186   -2.7288 C   0  0  0  0  0  0  0  0  0  0  0  0
    3.8611   -0.9999   -3.7938 C   0  0  0  0  0  0  0  0  0  0  0  0
    4.3633   -2.3787   -4.1376 C   0  0  0  0  0  0  0  0  0  0  0  0
    4.3502    0.0680   -4.7452 C   0  0  0  0  0  0  0  0  0  0  0  0
    2.5405   -1.6790   -1.7041 C   0  0  0  0  0  0  0  0  0  0  0  0
    3.0237   -1.2865   -0.3094 C   0  0  0  0  0  0  0  0  0  0  0  0
    2.4928    1.3957    1.8103 H   0  0  0  0  0  0  0  0  0  0  0  0
    2.8768   -0.2947    2.1625 H   0  0  0  0  0  0  0  0  0  0  0  0
    4.1054    0.7592    1.4443 H   0  0  0  0  0  0  0  0  0  0  0  0
    1.4510    0.1158    0.0681 H   0  0  0  0  0  0  0  0  0  0  0  0
    2.5034    2.1117   -0.8136 H   0  0  0  0  0  0  0  0  0  0  0  0
    4.0870    1.3295   -0.9324 H   0  0  0  0  0  0  0  0  0  0  0  0
    4.0091   -2.6725   -5.1307 H   0  0  0  0  0  0  0  0  0  0  0  0
    5.4592   -2.3805   -4.1452 H   0  0  0  0  0  0  0  0  0  0  0  0
    4.0538   -3.1554   -3.4370 H   0  0  0  0  0  0  0  0  0  0  0  0
    3.5147    0.5150   -5.2927 H   0  0  0  0  0  0  0  0  0  0  0  0
    4.9011    0.8481   -4.2100 H   0  0  0  0  0  0  0  0  0  0  0  0
    5.0330   -0.3491   -5.4939 H   0  0  0  0  0  0  0  0  0  0  0  0
    1.4429   -1.6571   -1.7376 H   0  0  0  0  0  0  0  0  0  0  0  0
    2.8237   -2.7156   -1.8959 H   0  0  0  0  0  0  0  0  0  0  0  0
    4.1191   -1.3438   -0.2639 H   0  0  0  0  0  0  0  0  0  0  0  0
    2.6345   -2.0072    0.4197 H   0  0  0  0  0  0  0  0  0  0  0  0
  1 12  1  0  0  0  0
  1 13  1  0  0  0  0
  1 14  1  0  0  0  0
  2  3  1  0  0  0  0
  2 11  1  0  0  0  0
  2 15  1  1  0  0  0
  2  1  1  0  0  0  0
  3  4  1  0  0  0  0
  3 16  1  0  0  0  0
  3 17  1  0  0  0  0
  4  5  2  0  0  0  0
  4  6  1  0  0  0  0
  6  7  2  0  0  0  0
  6 10  1  0  0  0  0
  7  8  1  0  0  0  0
  7  9  1  0  0  0  0
  8 18  1  0  0  0  0
  8 19  1  0  0  0  0
  8 20  1  0  0  0  0
  9 21  1  0  0  0  0
  9 22  1  0  0  0  0
  9 23  1  0  0  0  0
 10 11  1  0  0  0  0
 10 24  1  0  0  0  0
 10 25  1  0  0  0  0
 11 26  1  0  0  0  0
 11 27  1  0  0  0  0
M  END
>  <Mol_ID>
4416

>  <Formula>
C10H16O

>  <MolWeight>
152.23344

>  <Cat>
S9140

>  <Name>
Pulegone

>  <Target>
TRP Channel

>  <Form>
free base

>  <CAS>
89-82-7

>  <URL>
https://www.selleckchem.com/products/pulegone.html

$$$$
