S9142 Sparteine.cdx
 OpenBabel08302521292D

 43 46  0  0  0  0  0  0  0  0999 V2000
    4.2170    3.8173    0.0000 C   0  0  2  0  0  0  0  0  0  0  0  0
    4.1993    1.4000    0.0000 C   0  0  2  0  0  0  0  0  0  0  0  0
    5.5970    1.3905    0.0000 C   0  0  0  0  0  0  0  0  0  0  0  0
    0.7050    2.6283    0.0000 C   0  0  0  0  0  0  0  0  0  0  0  0
    0.0000    1.4183    0.0000 C   0  0  0  0  0  0  0  0  0  0  0  0
    0.6955    0.2108    0.0000 C   0  0  0  0  0  0  0  0  0  0  0  0
    2.0884    0.2015    0.0000 C   0  0  0  0  0  0  0  0  0  0  0  0
    2.1054    2.6306    0.0000 N   0  0  3  0  0  0  0  0  0  0  0  0
    2.7881    1.4084    0.0000 C   0  0  2  0  0  0  0  0  0  0  0  0
    4.9005    2.5887    0.0000 C   0  0  0  0  0  0  0  0  0  0  0  0
    2.8147    3.8336    0.0000 C   0  0  0  0  0  0  0  0  0  0  0  0
    5.6137    3.8200    0.0000 C   0  0  2  0  0  0  0  0  0  0  0  0
    6.2968    2.5976    0.0000 N   0  0  3  0  0  0  0  0  0  0  0  0
    7.6892    2.5780    0.0000 C   0  0  0  0  0  0  0  0  0  0  0  0
    8.4091    3.7779    0.0000 C   0  0  0  0  0  0  0  0  0  0  0  0
    7.7261    5.0000    0.0000 C   0  0  0  0  0  0  0  0  0  0  0  0
    6.3232    5.0228    0.0000 C   0  0  0  0  0  0  0  0  0  0  0  0
    3.6693    2.8981    0.0000 H   0  0  0  0  0  0  0  0  0  0  0  0
    5.1302    1.9275    0.0000 H   0  0  0  0  0  0  0  0  0  0  0  0
    6.1280    0.4616    0.0000 H   0  0  0  0  0  0  0  0  0  0  0  0
    6.6670    1.3872    0.0000 H   0  0  0  0  0  0  0  0  0  0  0  0
    0.1711    3.5556    0.0000 H   0  0  0  0  0  0  0  0  0  0  0  0
   -0.3650    2.6310    0.0000 H   0  0  0  0  0  0  0  0  0  0  0  0
   -1.0700    1.4210    0.0000 H   0  0  0  0  0  0  0  0  0  0  0  0
   -0.5366    0.4926    0.0000 H   0  0  0  0  0  0  0  0  0  0  0  0
    0.1569   -0.7138    0.0000 H   0  0  0  0  0  0  0  0  0  0  0  0
    1.2256   -0.7187    0.0000 H   0  0  0  0  0  0  0  0  0  0  0  0
    2.6195   -0.7274    0.0000 H   0  0  0  0  0  0  0  0  0  0  0  0
    3.1584    0.1983    0.0000 H   0  0  0  0  0  0  0  0  0  0  0  0
    1.7181    1.4170    0.0000 H   0  0  0  0  0  0  0  0  0  0  0  0
    5.9704    2.5752    0.0000 H   0  0  0  0  0  0  0  0  0  0  0  0
    5.4253    1.6562    0.0000 H   0  0  0  0  0  0  0  0  0  0  0  0
    2.2894    4.7658    0.0000 H   0  0  0  0  0  0  0  0  0  0  0  0
    1.7448    3.8440    0.0000 H   0  0  0  0  0  0  0  0  0  0  0  0
    5.0821    4.7486    0.0000 H   0  0  0  0  0  0  0  0  0  0  0  0
    8.2098    1.6432    0.0000 H   0  0  0  0  0  0  0  0  0  0  0  0
    8.7591    2.5608    0.0000 H   0  0  0  0  0  0  0  0  0  0  0  0
    9.4790    3.7614    0.0000 H   0  0  0  0  0  0  0  0  0  0  0  0
    8.9576    4.6966    0.0000 H   0  0  0  0  0  0  0  0  0  0  0  0
    8.2750    5.9185    0.0000 H   0  0  0  0  0  0  0  0  0  0  0  0
    7.2057    5.9349    0.0000 H   0  0  0  0  0  0  0  0  0  0  0  0
    5.8001    5.9562    0.0000 H   0  0  0  0  0  0  0  0  0  0  0  0
    6.8716    5.9416    0.0000 H   0  0  0  0  0  0  0  0  0  0  0  0
  1 10  1  0  0  0  0
  1 11  1  0  0  0  0
  1 12  1  0  0  0  0
  1 18  1  1  0  0  0
  2 10  1  0  0  0  0
  2  3  1  0  0  0  0
  2 19  1  1  0  0  0
  3 13  1  0  0  0  0
  3 20  1  0  0  0  0
  3 21  1  0  0  0  0
  4  8  1  0  0  0  0
  4  5  1  0  0  0  0
  4 22  1  0  0  0  0
  4 23  1  0  0  0  0
  5  6  1  0  0  0  0
  5 24  1  0  0  0  0
  5 25  1  0  0  0  0
  6  7  1  0  0  0  0
  6 26  1  0  0  0  0
  6 27  1  0  0  0  0
  7 28  1  0  0  0  0
  7 29  1  0  0  0  0
  8 11  1  0  0  0  0
  8  9  1  0  0  0  0
  9  2  1  0  0  0  0
  9  7  1  0  0  0  0
  9 30  1  1  0  0  0
 10 31  1  0  0  0  0
 10 32  1  0  0  0  0
 11 33  1  0  0  0  0
 11 34  1  0  0  0  0
 12 13  1  0  0  0  0
 12 17  1  0  0  0  0
 12 35  1  6  0  0  0
 13 14  1  0  0  0  0
 14 15  1  0  0  0  0
 14 36  1  0  0  0  0
 14 37  1  0  0  0  0
 15 16  1  0  0  0  0
 15 38  1  0  0  0  0
 15 39  1  0  0  0  0
 16 17  1  0  0  0  0
 16 40  1  0  0  0  0
 16 41  1  0  0  0  0
 17 42  1  0  0  0  0
 17 43  1  0  0  0  0
M  END
>  <Mol_ID>
4418

>  <Formula>
C15H26N2

>  <MolWeight>
234.38034

>  <Cat>
S9142

>  <Name>
Sparteine

>  <Target>
Sodium Channel

>  <Form>
free base

>  <CAS>
492-08-0

>  <URL>
https://www.selleckchem.com/products/sparteine.html

$$$$
