S9172 Phellodendrine.cdx
 OpenBabel08302521193D

 49 52  0  0  0  0  0  0  0  0999 V2000
    0.0248    1.1900   -0.1832 N   0  3  3  0  0  0  0  0  0  0  0  0
    0.4072   -0.1150    0.5777 C   0  0  2  0  0  0  0  0  0  0  0  0
    1.8998   -0.4152    0.4618 C   0  0  0  0  0  0  0  0  0  0  0  0
   -1.9842   -0.9075    0.0531 C   0  0  0  0  0  0  0  0  0  0  0  0
   -0.5243   -1.2740    0.1285 C   0  0  0  0  0  0  0  0  0  0  0  0
   -2.4039    0.4216    0.0649 C   0  0  0  0  0  0  0  0  0  0  0  0
    2.8255    0.6223    0.2001 C   0  0  0  0  0  0  0  0  0  0  0  0
   -1.4265    1.5591    0.1506 C   0  0  0  0  0  0  0  0  0  0  0  0
    2.3980   -1.7178    0.6118 C   0  0  0  0  0  0  0  0  0  0  0  0
    3.7463   -1.9854    0.3896 C   0  0  0  0  0  0  0  0  0  0  0  0
   -2.9491   -1.9165   -0.0770 C   0  0  0  0  0  0  0  0  0  0  0  0
    4.1870    0.3283   -0.0180 C   0  0  0  0  0  0  0  0  0  0  0  0
   -3.7797    0.7058    0.0451 C   0  0  0  0  0  0  0  0  0  0  0  0
   -4.3192   -1.6231   -0.1265 C   0  0  0  0  0  0  0  0  0  0  0  0
    4.6498   -0.9808    0.0467 C   0  0  0  0  0  0  0  0  0  0  0  0
   -4.7574   -0.3036   -0.0413 C   0  0  0  0  0  0  0  0  0  0  0  0
    0.9214    2.3106    0.3526 C   0  0  0  0  0  0  0  0  0  0  0  0
    2.3964    2.0632    0.0497 C   0  0  0  0  0  0  0  0  0  0  0  0
    0.1705    1.0416   -1.7014 C   0  0  0  0  0  0  0  0  0  0  0  0
    4.1591   -3.2849    0.4880 O   0  0  0  0  0  0  0  0  0  0  0  0
   -5.0932   -2.7378   -0.2708 O   0  0  0  0  0  0  0  0  0  0  0  0
   -6.0088    0.2319   -0.0418 O   0  0  0  0  0  0  0  0  0  0  0  0
    5.9300   -1.3972   -0.1987 O   0  0  0  0  0  0  0  0  0  0  0  0
   -7.1652   -0.5804   -0.0852 C   0  0  0  0  0  0  0  0  0  0  0  0
    6.8322   -0.4192   -0.7096 C   0  0  0  0  0  0  0  0  0  0  0  0
    0.2066    0.0981    1.6349 H   0  0  0  0  0  0  0  0  0  0  0  0
   -0.2103   -1.6593   -0.8497 H   0  0  0  0  0  0  0  0  0  0  0  0
   -0.4261   -2.0997    0.8454 H   0  0  0  0  0  0  0  0  0  0  0  0
   -1.7098    2.3589   -0.5433 H   0  0  0  0  0  0  0  0  0  0  0  0
   -1.4397    1.9548    1.1717 H   0  0  0  0  0  0  0  0  0  0  0  0
    1.7598   -2.5584    0.8740 H   0  0  0  0  0  0  0  0  0  0  0  0
   -2.6413   -2.9606   -0.1362 H   0  0  0  0  0  0  0  0  0  0  0  0
    4.8627    1.1452   -0.2592 H   0  0  0  0  0  0  0  0  0  0  0  0
   -4.1214    1.7402    0.0924 H   0  0  0  0  0  0  0  0  0  0  0  0
    0.5838    3.2561   -0.0903 H   0  0  0  0  0  0  0  0  0  0  0  0
    0.7603    2.3609    1.4370 H   0  0  0  0  0  0  0  0  0  0  0  0
    2.6081    2.3799   -0.9768 H   0  0  0  0  0  0  0  0  0  0  0  0
    2.9968    2.6910    0.7153 H   0  0  0  0  0  0  0  0  0  0  0  0
    1.1769    0.6955   -1.9481 H   0  0  0  0  0  0  0  0  0  0  0  0
   -0.5597    0.3213   -2.0755 H   0  0  0  0  0  0  0  0  0  0  0  0
   -0.0052    2.0201   -2.1578 H   0  0  0  0  0  0  0  0  0  0  0  0
    5.1155   -3.2749    0.2815 H   0  0  0  0  0  0  0  0  0  0  0  0
   -6.0126   -2.5561   -0.0460 H   0  0  0  0  0  0  0  0  0  0  0  0
   -7.2190   -1.1341   -1.0265 H   0  0  0  0  0  0  0  0  0  0  0  0
   -7.2195   -1.2382    0.7869 H   0  0  0  0  0  0  0  0  0  0  0  0
   -8.0377    0.0801   -0.0406 H   0  0  0  0  0  0  0  0  0  0  0  0
    6.4696   -0.0006   -1.6546 H   0  0  0  0  0  0  0  0  0  0  0  0
    7.0108    0.3699    0.0279 H   0  0  0  0  0  0  0  0  0  0  0  0
    7.7877   -0.9135   -0.9081 H   0  0  0  0  0  0  0  0  0  0  0  0
  2  1  1  0  0  0  0
  2  5  1  0  0  0  0
  2 26  1  1  0  0  0
  3  2  1  0  0  0  0
  4  6  2  0  0  0  0
  4  5  1  0  0  0  0
  5 27  1  0  0  0  0
  5 28  1  0  0  0  0
  6  8  1  0  0  0  0
  7  3  2  0  0  0  0
  7 18  1  0  0  0  0
  8  1  1  0  0  0  0
  8 29  1  0  0  0  0
  8 30  1  0  0  0  0
  9  3  1  0  0  0  0
  9 31  1  0  0  0  0
 10  9  2  0  0  0  0
 11  4  1  0  0  0  0
 11 14  2  0  0  0  0
 11 32  1  0  0  0  0
 12  7  1  0  0  0  0
 12 33  1  0  0  0  0
 13  6  1  0  0  0  0
 13 34  1  0  0  0  0
 14 16  1  0  0  0  0
 15 10  1  0  0  0  0
 15 12  2  0  0  0  0
 16 13  2  0  0  0  0
 17  1  1  0  0  0  0
 17 35  1  0  0  0  0
 17 36  1  0  0  0  0
 18 17  1  0  0  0  0
 18 37  1  0  0  0  0
 18 38  1  0  0  0  0
 19  1  1  0  0  0  0
 19 39  1  0  0  0  0
 19 40  1  0  0  0  0
 19 41  1  0  0  0  0
 20 10  1  0  0  0  0
 20 42  1  0  0  0  0
 21 14  1  0  0  0  0
 21 43  1  0  0  0  0
 22 16  1  0  0  0  0
 23 15  1  0  0  0  0
 24 22  1  0  0  0  0
 24 44  1  0  0  0  0
 24 45  1  0  0  0  0
 24 46  1  0  0  0  0
 25 23  1  0  0  0  0
 25 47  1  0  0  0  0
 25 48  1  0  0  0  0
 25 49  1  0  0  0  0
M  CHG  1   1   1
M  END
>  <Mol_ID>
4439

>  <Formula>
C20H24NO4+

>  <MolWeight>
342.40886

>  <Cat>
S9172

>  <Name>
Phellodendrine

>  <Target>
Immunology & Inflammation related

>  <Form>
free base

>  <CAS>
6873-13-8

>  <URL>
https://www.selleckchem.com/products/phellodendrine.html

$$$$
