S9179 Catharanthine hemitartrate.cdx
 OpenBabel08302521203D

 65 68  0  0  0  0  0  0  0  0999 V2000
   13.9535    3.7050   -0.3679 C   0  0  1  0  0  0  0  0  0  0  0  0
   15.3909    4.0950   -0.0322 C   0  0  0  0  0  0  0  0  0  0  0  0
   15.8531    5.2634    0.5646 C   0  0  0  0  0  0  0  0  0  0  0  0
   16.3962    3.1657    0.1660 N   0  0  0  0  0  0  0  0  0  0  0  0
   13.2973    4.7219   -1.3655 C   0  0  2  0  0  0  0  0  0  0  0  0
   13.0989    6.0845   -0.7803 N   0  0  3  0  0  0  0  0  0  0  0  0
   11.8558    4.2891   -1.6484 C   0  0  0  0  0  0  0  0  0  0  0  0
   13.9502    2.2339   -0.8647 C   0  0  0  0  0  0  0  0  0  0  0  0
   16.5902    4.7564    1.6862 C   0  0  0  0  0  0  0  0  0  0  0  0
   16.8143    3.3962    1.4569 C   0  0  0  0  0  0  0  0  0  0  0  0
   11.1284    4.0501   -0.5363 C   0  0  0  0  0  0  0  0  0  0  0  0
   13.0951    3.7316    0.9617 C   0  0  0  0  0  0  0  0  0  0  0  0
   15.2546    6.6306    0.5130 C   0  0  0  0  0  0  0  0  0  0  0  0
   11.8130    4.5413    0.7230 C   0  0  1  0  0  0  0  0  0  0  0  0
   12.2406    6.0138    0.4309 C   0  0  0  0  0  0  0  0  0  0  0  0
   14.3032    6.8979   -0.6591 C   0  0  0  0  0  0  0  0  0  0  0  0
   14.0558    2.1270   -2.2157 O   0  0  0  0  0  0  0  0  0  0  0  0
   11.3546    4.4201   -3.0507 C   0  0  0  0  0  0  0  0  0  0  0  0
   16.8563    5.2759    2.9599 C   0  0  0  0  0  0  0  0  0  0  0  0
   17.2284    2.4998    2.4402 C   0  0  0  0  0  0  0  0  0  0  0  0
   14.0912    0.7708   -2.6826 C   0  0  0  0  0  0  0  0  0  0  0  0
    9.9090    4.0129   -3.2357 C   0  0  0  0  0  0  0  0  0  0  0  0
   17.1115    4.3684    3.9973 C   0  0  0  0  0  0  0  0  0  0  0  0
   17.2756    3.0062    3.7376 C   0  0  0  0  0  0  0  0  0  0  0  0
  -41.9985    3.3540    0.7595 C   0  0  3  0  0  0  0  0  0  0  0  0
  -41.8730    3.4542    2.2750 C   0  0  3  0  0  0  0  0  0  0  0  0
  -41.5940    4.6435    0.0677 C   0  0  0  0  0  0  0  0  0  0  0  0
  -42.7172    4.5827    2.8538 C   0  0  0  0  0  0  0  0  0  0  0  0
  -43.8556    4.4496    3.2795 O   0  0  0  0  0  0  0  0  0  0  0  0
  -40.4957    5.1724    0.1573 O   0  0  0  0  0  0  0  0  0  0  0  0
  -43.3439    2.9997    0.3684 O   0  0  0  0  0  0  0  0  0  0  0  0
  -42.3121    2.1983    2.8320 O   0  0  0  0  0  0  0  0  0  0  0  0
  -42.0865    5.7657    2.9111 O   0  0  0  0  0  0  0  0  0  0  0  0
  -42.6048    5.1429   -0.6887 O   0  0  0  0  0  0  0  0  0  0  0  0
   13.9976    1.2613   -0.1215 O   0  0  0  0  0  0  0  0  0  0  0  0
   16.4193    2.2409   -0.2404 H   0  0  0  0  0  0  0  0  0  0  0  0
   13.8695    4.7780   -2.2998 H   0  0  0  0  0  0  0  0  0  0  0  0
   10.0688    3.8278   -0.5325 H   0  0  0  0  0  0  0  0  0  0  0  0
   12.8303    2.7291    1.3157 H   0  0  0  0  0  0  0  0  0  0  0  0
   13.6442    4.1926    1.7929 H   0  0  0  0  0  0  0  0  0  0  0  0
   14.7471    6.8324    1.4630 H   0  0  0  0  0  0  0  0  0  0  0  0
   16.0721    7.3613    0.4556 H   0  0  0  0  0  0  0  0  0  0  0  0
   11.1428    4.4944    1.5860 H   0  0  0  0  0  0  0  0  0  0  0  0
   12.7051    6.4431    1.3221 H   0  0  0  0  0  0  0  0  0  0  0  0
   11.3439    6.6155    0.2343 H   0  0  0  0  0  0  0  0  0  0  0  0
   14.8629    6.8544   -1.6025 H   0  0  0  0  0  0  0  0  0  0  0  0
   13.9721    7.9415   -0.5764 H   0  0  0  0  0  0  0  0  0  0  0  0
   11.4445    5.4751   -3.3422 H   0  0  0  0  0  0  0  0  0  0  0  0
   11.9986    3.8482   -3.7283 H   0  0  0  0  0  0  0  0  0  0  0  0
   16.6683    6.3221    3.1829 H   0  0  0  0  0  0  0  0  0  0  0  0
   17.3341    1.4405    2.2350 H   0  0  0  0  0  0  0  0  0  0  0  0
   13.7801    0.7670   -3.7301 H   0  0  0  0  0  0  0  0  0  0  0  0
   13.4049    0.1237   -2.1279 H   0  0  0  0  0  0  0  0  0  0  0  0
   15.1117    0.3817   -2.6161 H   0  0  0  0  0  0  0  0  0  0  0  0
    9.6655    3.9877   -4.3059 H   0  0  0  0  0  0  0  0  0  0  0  0
    9.2153    4.7076   -2.7565 H   0  0  0  0  0  0  0  0  0  0  0  0
    9.7257    3.0009   -2.8499 H   0  0  0  0  0  0  0  0  0  0  0  0
   17.1096    4.7262    5.0210 H   0  0  0  0  0  0  0  0  0  0  0  0
   17.3971    2.3153    4.5680 H   0  0  0  0  0  0  0  0  0  0  0  0
  -41.3573    2.5549    0.3713 H   0  0  0  0  0  0  0  0  0  0  0  0
  -40.8317    3.6041    2.5839 H   0  0  0  0  0  0  0  0  0  0  0  0
  -43.4512    2.0633    0.6349 H   0  0  0  0  0  0  0  0  0  0  0  0
  -43.2647    2.3085    3.0331 H   0  0  0  0  0  0  0  0  0  0  0  0
  -42.7059    6.3792    3.3607 H   0  0  0  0  0  0  0  0  0  0  0  0
  -43.3711    4.5231   -0.6186 H   0  0  0  0  0  0  0  0  0  0  0  0
  1  8  1  6  0  0  0
  2  1  1  0  0  0  0
  3  2  2  0  0  0  0
  4  2  1  0  0  0  0
  4 36  1  0  0  0  0
  5  1  1  0  0  0  0
  5  7  1  0  0  0  0
  5  6  1  0  0  0  0
  5 37  1  6  0  0  0
  6 15  1  0  0  0  0
  7 11  2  0  0  0  0
  8 35  2  0  0  0  0
  9 10  2  0  0  0  0
  9  3  1  0  0  0  0
 10  4  1  0  0  0  0
 11 38  1  0  0  0  0
 12  1  1  0  0  0  0
 12 39  1  0  0  0  0
 12 40  1  0  0  0  0
 13  3  1  0  0  0  0
 13 16  1  0  0  0  0
 13 41  1  0  0  0  0
 13 42  1  0  0  0  0
 14 11  1  0  0  0  0
 14 12  1  0  0  0  0
 14 43  1  1  0  0  0
 15 14  1  0  0  0  0
 15 44  1  0  0  0  0
 15 45  1  0  0  0  0
 16  6  1  0  0  0  0
 16 46  1  0  0  0  0
 16 47  1  0  0  0  0
 17  8  1  0  0  0  0
 18  7  1  0  0  0  0
 18 48  1  0  0  0  0
 18 49  1  0  0  0  0
 19  9  1  0  0  0  0
 19 50  1  0  0  0  0
 20 10  1  0  0  0  0
 20 51  1  0  0  0  0
 21 17  1  0  0  0  0
 21 52  1  0  0  0  0
 21 53  1  0  0  0  0
 21 54  1  0  0  0  0
 22 18  1  0  0  0  0
 22 55  1  0  0  0  0
 22 56  1  0  0  0  0
 22 57  1  0  0  0  0
 23 19  2  0  0  0  0
 23 24  1  0  0  0  0
 23 58  1  0  0  0  0
 24 20  2  0  0  0  0
 24 59  1  0  0  0  0
 25 60  1  0  0  0  0
 26 25  1  0  0  0  0
 26 61  1  0  0  0  0
 27 25  1  0  0  0  0
 28 26  1  0  0  0  0
 29 28  2  0  0  0  0
 30 27  2  0  0  0  0
 31 25  1  0  0  0  0
 31 62  1  0  0  0  0
 32 26  1  0  0  0  0
 32 63  1  0  0  0  0
 33 28  1  0  0  0  0
 33 64  1  0  0  0  0
 34 27  1  0  0  0  0
 34 65  1  0  0  0  0
M  END
>  <Mol_ID>
4444

>  <Formula>
C25H30N2O8

>  <MolWeight>
486.5143

>  <Cat>
S9179

>  <Name>
Catharanthine hemitartrate

>  <Target>
AChR

>  <Form>
free base

>  <CAS>
4168-17-6

>  <URL>
https://www.selleckchem.com/products/catharanthine-hemitartrate.html

$$$$
