S9176 Pimpinellin.cdx
 OpenBabel08302521193D

 28 30  0  0  0  0  0  0  0  0999 V2000
    0.8895    0.5846    0.0007 C   0  0  0  0  0  0  0  0  0  0  0  0
   -0.5055    0.4762    0.0012 C   0  0  0  0  0  0  0  0  0  0  0  0
    1.6411   -0.5826    0.0032 C   0  0  0  0  0  0  0  0  0  0  0  0
    1.8134    1.6643   -0.0010 C   0  0  0  0  0  0  0  0  0  0  0  0
   -1.1186   -0.7859    0.0028 C   0  0  0  0  0  0  0  0  0  0  0  0
   -1.2676    1.6661    0.0015 O   0  0  0  0  0  0  0  0  0  0  0  0
    1.1017   -1.8818    0.0046 C   0  0  0  0  0  0  0  0  0  0  0  0
    2.9691   -0.2503    0.0035 O   0  0  0  0  0  0  0  0  0  0  0  0
    3.0636    1.1004    0.0013 C   0  0  0  0  0  0  0  0  0  0  0  0
   -0.3201   -1.9665    0.0043 C   0  0  0  0  0  0  0  0  0  0  0  0
   -2.5885   -0.8008    0.0040 C   0  0  0  0  0  0  0  0  0  0  0  0
   -2.6493    1.6614    0.0037 C   0  0  0  0  0  0  0  0  0  0  0  0
    1.8499   -3.0416    0.0051 O   0  0  0  0  0  0  0  0  0  0  0  0
   -1.0542   -3.1397    0.0042 O   0  0  0  0  0  0  0  0  0  0  0  0
   -3.2897    0.3369    0.0041 C   0  0  0  0  0  0  0  0  0  0  0  0
   -3.3131    2.6872    0.0048 O   0  0  0  0  0  0  0  0  0  0  0  0
    3.2675   -2.9223    0.0075 C   0  0  0  0  0  0  0  0  0  0  0  0
   -0.3769   -4.3914    0.0036 C   0  0  0  0  0  0  0  0  0  0  0  0
    1.5857    2.7200   -0.0029 H   0  0  0  0  0  0  0  0  0  0  0  0
    4.0690    1.4963    0.0018 H   0  0  0  0  0  0  0  0  0  0  0  0
   -3.1014   -1.7577    0.0044 H   0  0  0  0  0  0  0  0  0  0  0  0
   -4.3733    0.3466    0.0046 H   0  0  0  0  0  0  0  0  0  0  0  0
    3.6233   -2.4251   -0.9005 H   0  0  0  0  0  0  0  0  0  0  0  0
    3.6197   -2.4239    0.9162 H   0  0  0  0  0  0  0  0  0  0  0  0
    3.6885   -3.9320    0.0089 H   0  0  0  0  0  0  0  0  0  0  0  0
    0.2186   -4.5214   -0.9065 H   0  0  0  0  0  0  0  0  0  0  0  0
    0.2195   -4.5218    0.9129 H   0  0  0  0  0  0  0  0  0  0  0  0
   -1.1294   -5.1860    0.0038 H   0  0  0  0  0  0  0  0  0  0  0  0
  1  2  2  0  0  0  0
  1  3  1  0  0  0  0
  1  4  1  0  0  0  0
  2  5  1  0  0  0  0
  2  6  1  0  0  0  0
  3  7  2  0  0  0  0
  3  8  1  0  0  0  0
  4  9  2  0  0  0  0
  4 19  1  0  0  0  0
  5 10  2  0  0  0  0
  5 11  1  0  0  0  0
  6 12  1  0  0  0  0
  7 13  1  0  0  0  0
  7 10  1  0  0  0  0
  8  9  1  0  0  0  0
  9 20  1  0  0  0  0
 10 14  1  0  0  0  0
 11 15  2  0  0  0  0
 11 21  1  0  0  0  0
 12 16  2  0  0  0  0
 12 15  1  0  0  0  0
 13 17  1  0  0  0  0
 14 18  1  0  0  0  0
 15 22  1  0  0  0  0
 17 23  1  0  0  0  0
 17 24  1  0  0  0  0
 17 25  1  0  0  0  0
 18 26  1  0  0  0  0
 18 27  1  0  0  0  0
 18 28  1  0  0  0  0
M  END
>  <Mol_ID>
4442

>  <Formula>
C13H10O5

>  <MolWeight>
246.2155

>  <Cat>
S9176

>  <Name>
Pimpinellin

>  <Target>
GABA Receptor

>  <Form>
free base

>  <CAS>
131-12-4

>  <URL>
https://www.selleckchem.com/products/pimpinellin.html

$$$$
