S9173 Sec-O-Glucosylhamaudol.cdx
 OpenBabel08302521193D

 57 60  0  0  0  0  0  0  0  0999 V2000
   -6.9070    2.2229    7.0650 C   0  0  0  0  0  0  0  0  0  0  0  0
   -6.6100   -0.3304    5.9742 C   0  0  0  0  0  0  0  0  0  0  0  0
   -6.6746    0.7851    5.1222 C   0  0  0  0  0  0  0  0  0  0  0  0
   -6.8081    2.0606    5.6843 C   0  0  0  0  0  0  0  0  0  0  0  0
   -6.8061    3.2136    4.9441 O   0  0  0  0  0  0  0  0  0  0  0  0
   -6.1392    3.1127    3.6618 C   0  0  0  0  0  0  0  0  0  0  0  0
   -6.7455    1.9271    2.8481 C   0  0  2  0  0  0  0  0  0  0  0  0
   -6.5379    0.6326    3.6356 C   0  0  0  0  0  0  0  0  0  0  0  0
   -6.8196    1.1092    7.9014 C   0  0  0  0  0  0  0  0  0  0  0  0
   -6.6826   -0.1679    7.3670 C   0  0  0  0  0  0  0  0  0  0  0  0
   -6.5757   -1.3085    8.3105 C   0  0  0  0  0  0  0  0  0  0  0  0
   -6.6160   -0.9752    9.7429 C   0  0  0  0  0  0  0  0  0  0  0  0
   -6.7408    0.2991   10.1267 C   0  0  0  0  0  0  0  0  0  0  0  0
   -6.8571    1.3633    9.2516 O   0  0  0  0  0  0  0  0  0  0  0  0
   -6.4385   -2.4839    7.9902 O   0  0  0  0  0  0  0  0  0  0  0  0
   -4.6171    3.0184    3.9110 C   0  0  0  0  0  0  0  0  0  0  0  0
   -6.4185    4.4447    2.9407 C   0  0  0  0  0  0  0  0  0  0  0  0
   -6.1809    1.8482    1.5243 O   0  0  0  0  0  0  0  0  0  0  0  0
   -6.7384    0.8283    0.6601 C   0  0  2  0  0  0  0  0  0  0  0  0
   -6.2656   -0.4568    1.0641 O   0  0  0  0  0  0  0  0  0  0  0  0
   -6.6569   -1.4992    0.1537 C   0  0  1  0  0  0  0  0  0  0  0  0
   -5.8698   -1.3190   -1.1375 C   0  0  2  0  0  0  0  0  0  0  0  0
   -6.2716    0.0133   -1.7794 C   0  0  1  0  0  0  0  0  0  0  0  0
   -6.3111    1.1966   -0.7919 C   0  0  1  0  0  0  0  0  0  0  0  0
   -6.3661   -2.8574    0.8019 C   0  0  0  0  0  0  0  0  0  0  0  0
   -5.3746    0.2951   -2.8723 O   0  0  0  0  0  0  0  0  0  0  0  0
   -7.2339    2.1738   -1.3204 O   0  0  0  0  0  0  0  0  0  0  0  0
   -6.0935   -2.4173   -2.0245 O   0  0  0  0  0  0  0  0  0  0  0  0
   -7.1452   -2.9928    1.9903 O   0  0  0  0  0  0  0  0  0  0  0  0
   -6.4687   -1.5912    5.4610 O   0  0  0  0  0  0  0  0  0  0  0  0
   -6.7766    0.6914   11.5693 C   0  0  0  0  0  0  0  0  0  0  0  0
   -7.0080    3.2179    7.4885 H   0  0  0  0  0  0  0  0  0  0  0  0
   -7.8248    2.1094    2.7477 H   0  0  0  0  0  0  0  0  0  0  0  0
   -7.2766   -0.1005    3.2924 H   0  0  0  0  0  0  0  0  0  0  0  0
   -5.5377    0.2340    3.4209 H   0  0  0  0  0  0  0  0  0  0  0  0
   -6.5265   -1.8041   10.4328 H   0  0  0  0  0  0  0  0  0  0  0  0
   -4.0600    2.7907    3.0007 H   0  0  0  0  0  0  0  0  0  0  0  0
   -4.2361    3.9628    4.3230 H   0  0  0  0  0  0  0  0  0  0  0  0
   -4.3608    2.2682    4.6683 H   0  0  0  0  0  0  0  0  0  0  0  0
   -7.4733    4.7260    3.0312 H   0  0  0  0  0  0  0  0  0  0  0  0
   -5.8505    5.2655    3.3956 H   0  0  0  0  0  0  0  0  0  0  0  0
   -6.1516    4.4068    1.8802 H   0  0  0  0  0  0  0  0  0  0  0  0
   -7.8316    0.8607    0.7503 H   0  0  0  0  0  0  0  0  0  0  0  0
   -7.7398   -1.4347   -0.0210 H   0  0  0  0  0  0  0  0  0  0  0  0
   -4.7944   -1.3036   -0.9213 H   0  0  0  0  0  0  0  0  0  0  0  0
   -7.2534   -0.0947   -2.2547 H   0  0  0  0  0  0  0  0  0  0  0  0
   -5.3337    1.6919   -0.7801 H   0  0  0  0  0  0  0  0  0  0  0  0
   -6.6307   -3.6870    0.1395 H   0  0  0  0  0  0  0  0  0  0  0  0
   -5.3132   -2.9478    1.0846 H   0  0  0  0  0  0  0  0  0  0  0  0
   -4.4557    0.2678   -2.5321 H   0  0  0  0  0  0  0  0  0  0  0  0
   -7.2102    2.9450   -0.7263 H   0  0  0  0  0  0  0  0  0  0  0  0
   -6.6273   -2.1133   -2.7812 H   0  0  0  0  0  0  0  0  0  0  0  0
   -6.9658   -2.1974    2.5154 H   0  0  0  0  0  0  0  0  0  0  0  0
   -6.2379   -1.5814    4.5233 H   0  0  0  0  0  0  0  0  0  0  0  0
   -5.9031    1.3030   11.8155 H   0  0  0  0  0  0  0  0  0  0  0  0
   -7.6797    1.2720   11.7803 H   0  0  0  0  0  0  0  0  0  0  0  0
   -6.7763   -0.1813   12.2310 H   0  0  0  0  0  0  0  0  0  0  0  0
  1  4  2  0  0  0  0
  1 32  1  0  0  0  0
  2 30  1  0  0  0  0
  3  2  2  0  0  0  0
  3  8  1  0  0  0  0
  3  4  1  0  0  0  0
  4  5  1  0  0  0  0
  5  6  1  0  0  0  0
  6 16  1  0  0  0  0
  6 17  1  0  0  0  0
  6  7  1  0  0  0  0
  7  8  1  0  0  0  0
  7 33  1  6  0  0  0
  7 18  1  0  0  0  0
  8 34  1  0  0  0  0
  8 35  1  0  0  0  0
  9  1  1  0  0  0  0
  9 10  2  0  0  0  0
  9 14  1  0  0  0  0
 10  2  1  0  0  0  0
 10 11  1  0  0  0  0
 11 15  2  0  0  0  0
 11 12  1  0  0  0  0
 12 13  2  0  0  0  0
 12 36  1  0  0  0  0
 13 14  1  0  0  0  0
 13 31  1  0  0  0  0
 16 37  1  0  0  0  0
 16 38  1  0  0  0  0
 16 39  1  0  0  0  0
 17 40  1  0  0  0  0
 17 41  1  0  0  0  0
 17 42  1  0  0  0  0
 19 20  1  0  0  0  0
 19 24  1  0  0  0  0
 19 43  1  1  0  0  0
 19 18  1  0  0  0  0
 20 21  1  0  0  0  0
 21 22  1  0  0  0  0
 21 25  1  0  0  0  0
 21 44  1  6  0  0  0
 22 23  1  0  0  0  0
 22 28  1  0  0  0  0
 22 45  1  1  0  0  0
 23 24  1  0  0  0  0
 23 26  1  0  0  0  0
 23 46  1  6  0  0  0
 24 27  1  0  0  0  0
 24 47  1  1  0  0  0
 25 29  1  0  0  0  0
 25 48  1  0  0  0  0
 25 49  1  0  0  0  0
 26 50  1  0  0  0  0
 27 51  1  0  0  0  0
 28 52  1  0  0  0  0
 29 53  1  0  0  0  0
 30 54  1  0  0  0  0
 31 55  1  0  0  0  0
 31 56  1  0  0  0  0
 31 57  1  0  0  0  0
M  END
>  <Mol_ID>
4440

>  <Formula>
C21H26O10

>  <MolWeight>
438.42514

>  <Cat>
S9173

>  <Name>
Sec-O-Glucosylhamaudol

>  <Synonyms>
Hamaudol 3-glucoside

>  <Target>
Others

>  <Form>
free base

>  <CAS>
80681-44-3

>  <URL>
https://www.selleckchem.com/products/sec-o-glucosylhamaudol.html

$$$$
