S9180 Tussilagone.cdx
 OpenBabel08302521203D

 62 63  0  0  0  0  0  0  0  0999 V2000
    0.0829    0.6839    0.1043 C   0  0  3  0  0  0  0  0  0  0  0  0
    0.1669   -0.6871   -0.5961 C   0  0  3  0  0  0  0  0  0  0  0  0
    1.4877    1.3082    0.0041 C   0  0  3  0  0  0  0  0  0  0  0  0
   -1.1826    1.4822   -0.3169 C   0  0  3  0  0  0  0  0  0  0  0  0
   -1.0232   -1.5230   -0.1558 C   0  0  0  0  0  0  0  0  0  0  0  0
    1.5711   -1.1823   -0.2451 C   0  0  0  0  0  0  0  0  0  0  0  0
    2.3487    0.1024   -0.3072 C   0  0  0  0  0  0  0  0  0  0  0  0
    1.9718    2.0207    1.2819 C   0  0  3  0  0  0  0  0  0  0  0  0
   -2.3756    0.5940    0.1532 C   0  0  0  0  0  0  0  0  0  0  0  0
   -1.3545    1.9204   -1.8127 C   0  0  0  0  0  0  0  0  0  0  0  0
   -2.3616   -0.8344   -0.4380 C   0  0  3  0  0  0  0  0  0  0  0  0
   -0.9069   -2.7206    0.4475 C   0  0  0  0  0  0  0  0  0  0  0  0
    3.5533    0.1558   -0.5200 O   0  0  0  0  0  0  0  0  0  0  0  0
    1.0427    3.0678    1.6415 O   0  0  0  0  0  0  0  0  0  0  0  0
    2.0960    1.1160    2.5136 C   0  0  0  0  0  0  0  0  0  0  0  0
   -2.6629    2.7118   -2.0079 C   0  0  0  0  0  0  0  0  0  0  0  0
   -0.2266    2.7971   -2.3625 C   0  0  0  0  0  0  0  0  0  0  0  0
   -3.4612   -1.5270    0.1767 O   0  0  0  0  0  0  0  0  0  0  0  0
    1.1873    4.2498    0.9853 C   0  0  0  0  0  0  0  0  0  0  0  0
   -4.1007   -2.4471   -0.5790 C   0  0  0  0  0  0  0  0  0  0  0  0
    0.1852    5.2538    1.4692 C   0  0  0  0  0  0  0  0  0  0  0  0
    2.0259    4.4892    0.1236 O   0  0  0  0  0  0  0  0  0  0  0  0
   -5.2164   -3.0739    0.1683 C   0  0  0  0  0  0  0  0  0  0  0  0
   -3.7906   -2.8086   -1.7032 O   0  0  0  0  0  0  0  0  0  0  0  0
   -5.9799   -2.5179    1.1321 C   0  0  0  0  0  0  0  0  0  0  0  0
   -7.1022   -3.3100    1.7705 C   0  0  0  0  0  0  0  0  0  0  0  0
   -5.8417   -1.0898    1.5898 C   0  0  0  0  0  0  0  0  0  0  0  0
   -6.9118   -3.5072    3.2689 C   0  0  0  0  0  0  0  0  0  0  0  0
   -0.0784    0.4698    1.1691 H   0  0  0  0  0  0  0  0  0  0  0  0
    0.1170   -0.5596   -1.6860 H   0  0  0  0  0  0  0  0  0  0  0  0
    1.5730    1.9876   -0.8377 H   0  0  0  0  0  0  0  0  0  0  0  0
   -1.2083    2.3980    0.2881 H   0  0  0  0  0  0  0  0  0  0  0  0
    1.6517   -1.5670    0.7768 H   0  0  0  0  0  0  0  0  0  0  0  0
    1.9454   -1.9154   -0.9629 H   0  0  0  0  0  0  0  0  0  0  0  0
    2.9664    2.4521    1.1095 H   0  0  0  0  0  0  0  0  0  0  0  0
   -3.3428    1.0667   -0.0436 H   0  0  0  0  0  0  0  0  0  0  0  0
   -2.3472    0.5201    1.2510 H   0  0  0  0  0  0  0  0  0  0  0  0
   -1.4135    1.0333   -2.4531 H   0  0  0  0  0  0  0  0  0  0  0  0
   -2.5122   -0.7695   -1.5223 H   0  0  0  0  0  0  0  0  0  0  0  0
    0.0500   -3.1937    0.6400 H   0  0  0  0  0  0  0  0  0  0  0  0
   -1.7737   -3.2874    0.7733 H   0  0  0  0  0  0  0  0  0  0  0  0
    2.8568    0.3429    2.3730 H   0  0  0  0  0  0  0  0  0  0  0  0
    2.3699    1.7122    3.3909 H   0  0  0  0  0  0  0  0  0  0  0  0
    1.1527    0.6289    2.7759 H   0  0  0  0  0  0  0  0  0  0  0  0
   -2.7098    3.5665   -1.3234 H   0  0  0  0  0  0  0  0  0  0  0  0
   -2.7431    3.0980   -3.0303 H   0  0  0  0  0  0  0  0  0  0  0  0
   -3.5461    2.0892   -1.8482 H   0  0  0  0  0  0  0  0  0  0  0  0
    0.6586    2.2027   -2.5977 H   0  0  0  0  0  0  0  0  0  0  0  0
   -0.5149    3.2758   -3.3060 H   0  0  0  0  0  0  0  0  0  0  0  0
    0.0362    3.5964   -1.6627 H   0  0  0  0  0  0  0  0  0  0  0  0
    0.6846    5.9863    2.1086 H   0  0  0  0  0  0  0  0  0  0  0  0
   -0.2701    5.7471    0.6060 H   0  0  0  0  0  0  0  0  0  0  0  0
   -0.6125    4.7639    2.0346 H   0  0  0  0  0  0  0  0  0  0  0  0
   -5.4157   -4.0863   -0.1723 H   0  0  0  0  0  0  0  0  0  0  0  0
   -8.0521   -2.7932    1.5867 H   0  0  0  0  0  0  0  0  0  0  0  0
   -7.1962   -4.2975    1.3017 H   0  0  0  0  0  0  0  0  0  0  0  0
   -4.9536   -0.9694    2.2185 H   0  0  0  0  0  0  0  0  0  0  0  0
   -5.7829   -0.4072    0.7357 H   0  0  0  0  0  0  0  0  0  0  0  0
   -6.7073   -0.7735    2.1806 H   0  0  0  0  0  0  0  0  0  0  0  0
   -6.8929   -2.5516    3.8031 H   0  0  0  0  0  0  0  0  0  0  0  0
   -7.7389   -4.0971    3.6773 H   0  0  0  0  0  0  0  0  0  0  0  0
   -5.9781   -4.0367    3.4829 H   0  0  0  0  0  0  0  0  0  0  0  0
  1  2  1  0  0  0  0
  1  3  1  0  0  0  0
  1  4  1  0  0  0  0
  1 29  1  0  0  0  0
  2  5  1  0  0  0  0
  2  6  1  0  0  0  0
  2 30  1  0  0  0  0
  3  7  1  0  0  0  0
  3  8  1  0  0  0  0
  3 31  1  0  0  0  0
  4  9  1  0  0  0  0
  4 10  1  0  0  0  0
  4 32  1  0  0  0  0
  5 11  1  0  0  0  0
  5 12  2  0  0  0  0
  6  7  1  0  0  0  0
  6 33  1  0  0  0  0
  6 34  1  0  0  0  0
  7 13  2  0  0  0  0
  8 14  1  0  0  0  0
  8 15  1  0  0  0  0
  8 35  1  0  0  0  0
  9 11  1  0  0  0  0
  9 36  1  0  0  0  0
  9 37  1  0  0  0  0
 10 16  1  0  0  0  0
 10 17  1  0  0  0  0
 10 38  1  0  0  0  0
 11 18  1  0  0  0  0
 11 39  1  0  0  0  0
 12 40  1  0  0  0  0
 12 41  1  0  0  0  0
 14 19  1  0  0  0  0
 15 42  1  0  0  0  0
 15 43  1  0  0  0  0
 15 44  1  0  0  0  0
 16 45  1  0  0  0  0
 16 46  1  0  0  0  0
 16 47  1  0  0  0  0
 17 48  1  0  0  0  0
 17 49  1  0  0  0  0
 17 50  1  0  0  0  0
 18 20  1  0  0  0  0
 19 21  1  0  0  0  0
 19 22  2  0  0  0  0
 20 23  1  0  0  0  0
 20 24  2  0  0  0  0
 21 51  1  0  0  0  0
 21 52  1  0  0  0  0
 21 53  1  0  0  0  0
 23 25  2  0  0  0  0
 23 54  1  0  0  0  0
 25 26  1  0  0  0  0
 25 27  1  0  0  0  0
 26 28  1  0  0  0  0
 26 55  1  0  0  0  0
 26 56  1  0  0  0  0
 27 57  1  0  0  0  0
 27 58  1  0  0  0  0
 27 59  1  0  0  0  0
 28 60  1  0  0  0  0
 28 61  1  0  0  0  0
 28 62  1  0  0  0  0
M  END
>  <Mol_ID>
4445

>  <Formula>
C23H34O5

>  <MolWeight>
390.51306

>  <Cat>
S9180

>  <Name>
Tussilagone

>  <Target>
Immunology & Inflammation related

>  <Form>
free base

>  <CAS>
104012-37-5

>  <URL>
https://www.selleckchem.com/products/tussilagone.html

$$$$
