S9204 Oroxylin A.cdx
 OpenBabel08302521203D

 33 35  0  0  0  0  0  0  0  0999 V2000
   -0.3819    0.2708   -0.0226 C   0  0  0  0  0  0  0  0  0  0  0  0
    0.0365   -1.0565    0.0069 C   0  0  0  0  0  0  0  0  0  0  0  0
    0.5936    1.2751   -0.0289 C   0  0  0  0  0  0  0  0  0  0  0  0
   -1.8408    0.5378   -0.0469 C   0  0  0  0  0  0  0  0  0  0  0  0
   -0.8263   -2.1242    0.0015 O   0  0  0  0  0  0  0  0  0  0  0  0
    1.3943   -1.3676    0.0408 C   0  0  0  0  0  0  0  0  0  0  0  0
    1.9808    0.9815   -0.0098 C   0  0  0  0  0  0  0  0  0  0  0  0
    0.2244    2.5996   -0.0547 O   0  0  0  0  0  0  0  0  0  0  0  0
   -2.7232   -0.6440   -0.0830 C   0  0  0  0  0  0  0  0  0  0  0  0
   -2.3455    1.6516   -0.0380 O   0  0  0  0  0  0  0  0  0  0  0  0
   -2.1798   -1.8647   -0.0602 C   0  0  0  0  0  0  0  0  0  0  0  0
    2.3656   -0.3607    0.0319 C   0  0  0  0  0  0  0  0  0  0  0  0
    2.7375    2.1228   -0.0244 O   0  0  0  0  0  0  0  0  0  0  0  0
   -3.0107   -3.0701   -0.0956 C   0  0  0  0  0  0  0  0  0  0  0  0
    3.6361   -0.8533    0.0797 O   0  0  0  0  0  0  0  0  0  0  0  0
    4.1501    2.0777   -0.0266 C   0  0  0  0  0  0  0  0  0  0  0  0
   -3.3831   -3.6351   -1.3215 C   0  0  0  0  0  0  0  0  0  0  0  0
   -3.4138   -3.6836    1.0967 C   0  0  0  0  0  0  0  0  0  0  0  0
   -4.1368   -4.8097   -1.3532 C   0  0  0  0  0  0  0  0  0  0  0  0
   -4.1678   -4.8578    1.0619 C   0  0  0  0  0  0  0  0  0  0  0  0
   -4.5246   -5.4225   -0.1622 C   0  0  0  0  0  0  0  0  0  0  0  0
    1.7026   -2.4112    0.0701 H   0  0  0  0  0  0  0  0  0  0  0  0
    1.0512    3.1166   -0.0334 H   0  0  0  0  0  0  0  0  0  0  0  0
   -3.7902   -0.4612   -0.1243 H   0  0  0  0  0  0  0  0  0  0  0  0
    4.2837   -0.1872   -0.1723 H   0  0  0  0  0  0  0  0  0  0  0  0
    4.5323    1.5977    0.8797 H   0  0  0  0  0  0  0  0  0  0  0  0
    4.5259    1.6052   -0.9384 H   0  0  0  0  0  0  0  0  0  0  0  0
    4.5158    3.1094   -0.0298 H   0  0  0  0  0  0  0  0  0  0  0  0
   -3.0769   -3.1719   -2.2566 H   0  0  0  0  0  0  0  0  0  0  0  0
   -3.1324   -3.2576    2.0570 H   0  0  0  0  0  0  0  0  0  0  0  0
   -4.4144   -5.2509   -2.3070 H   0  0  0  0  0  0  0  0  0  0  0  0
   -4.4702   -5.3361    1.9900 H   0  0  0  0  0  0  0  0  0  0  0  0
   -5.1023   -6.3429   -0.1879 H   0  0  0  0  0  0  0  0  0  0  0  0
  1  2  1  0  0  0  0
  1  3  2  0  0  0  0
  1  4  1  0  0  0  0
  2  5  1  0  0  0  0
  2  6  2  0  0  0  0
  3  7  1  0  0  0  0
  3  8  1  0  0  0  0
  4  9  1  0  0  0  0
  4 10  2  0  0  0  0
  5 11  1  0  0  0  0
  6 12  1  0  0  0  0
  6 22  1  0  0  0  0
  7 13  1  0  0  0  0
  7 12  2  0  0  0  0
  8 23  1  0  0  0  0
  9 11  2  0  0  0  0
  9 24  1  0  0  0  0
 11 14  1  0  0  0  0
 12 15  1  0  0  0  0
 13 16  1  0  0  0  0
 14 17  2  0  0  0  0
 14 18  1  0  0  0  0
 15 25  1  0  0  0  0
 16 26  1  0  0  0  0
 16 27  1  0  0  0  0
 16 28  1  0  0  0  0
 17 19  1  0  0  0  0
 17 29  1  0  0  0  0
 18 20  2  0  0  0  0
 18 30  1  0  0  0  0
 19 21  2  0  0  0  0
 19 31  1  0  0  0  0
 20 21  1  0  0  0  0
 20 32  1  0  0  0  0
 21 33  1  0  0  0  0
M  END
>  <Mol_ID>
4460

>  <Formula>
C16H12O5

>  <MolWeight>
284.26348

>  <Cat>
S9204

>  <Name>
Oroxylin A

>  <Synonyms>
6-Methoxybaicalein

>  <Target>
Immunology & Inflammation related

>  <Form>
free base

>  <CAS>
480-11-5

>  <URL>
https://www.selleckchem.com/products/oroxylin-a.html

$$$$
