S9227 Sinensetin.cdx
 OpenBabel08302521203D

 47 49  0  0  0  0  0  0  0  0999 V2000
   -0.1068    0.5748    0.0845 C   0  0  0  0  0  0  0  0  0  0  0  0
    0.8500    1.6254    0.0440 C   0  0  0  0  0  0  0  0  0  0  0  0
    0.3574   -0.7559    0.0562 C   0  0  0  0  0  0  0  0  0  0  0  0
   -1.5962    0.7060    0.1699 C   0  0  0  0  0  0  0  0  0  0  0  0
    2.2520    1.2999    0.0028 C   0  0  0  0  0  0  0  0  0  0  0  0
    0.6450    2.9714    0.0336 O   0  0  0  0  0  0  0  0  0  0  0  0
   -0.4491   -1.8758    0.0446 O   0  0  0  0  0  0  0  0  0  0  0  0
    1.7166   -1.0565    0.0252 C   0  0  0  0  0  0  0  0  0  0  0  0
   -2.4107   -0.5110    0.0844 C   0  0  0  0  0  0  0  0  0  0  0  0
   -2.2302    1.7418    0.3012 O   0  0  0  0  0  0  0  0  0  0  0  0
    2.6727   -0.0474    0.0026 C   0  0  0  0  0  0  0  0  0  0  0  0
    3.2869    2.2041   -0.0418 O   0  0  0  0  0  0  0  0  0  0  0  0
   -0.5878    3.6488   -0.0104 C   0  0  0  0  0  0  0  0  0  0  0  0
   -1.8050   -1.6950    0.0211 C   0  0  0  0  0  0  0  0  0  0  0  0
    3.9444   -0.5624   -0.0217 O   0  0  0  0  0  0  0  0  0  0  0  0
    3.0965    3.6077   -0.0637 C   0  0  0  0  0  0  0  0  0  0  0  0
   -2.6143   -2.8952   -0.1845 C   0  0  0  0  0  0  0  0  0  0  0  0
    5.0678    0.3056   -0.0495 C   0  0  0  0  0  0  0  0  0  0  0  0
   -2.8773   -3.3080   -1.4986 C   0  0  0  0  0  0  0  0  0  0  0  0
   -3.2114   -3.5650    0.8801 C   0  0  0  0  0  0  0  0  0  0  0  0
   -3.7354   -4.3828   -1.7711 C   0  0  0  0  0  0  0  0  0  0  0  0
   -4.0686   -4.6348    0.6215 C   0  0  0  0  0  0  0  0  0  0  0  0
   -4.3439   -5.0503   -0.6926 C   0  0  0  0  0  0  0  0  0  0  0  0
   -4.0116   -4.8001   -3.0453 O   0  0  0  0  0  0  0  0  0  0  0  0
   -5.2272   -6.0986   -0.7239 O   0  0  0  0  0  0  0  0  0  0  0  0
   -3.4199   -4.0995   -4.1320 C   0  0  0  0  0  0  0  0  0  0  0  0
   -5.6126   -6.6318   -1.9814 C   0  0  0  0  0  0  0  0  0  0  0  0
    2.0402   -2.0965    0.0153 H   0  0  0  0  0  0  0  0  0  0  0  0
   -3.4848   -0.3865    0.0491 H   0  0  0  0  0  0  0  0  0  0  0  0
   -1.1671    3.3750   -0.8958 H   0  0  0  0  0  0  0  0  0  0  0  0
   -1.1176    3.5429    0.9386 H   0  0  0  0  0  0  0  0  0  0  0  0
   -0.3661    4.7167   -0.1073 H   0  0  0  0  0  0  0  0  0  0  0  0
    2.5736    3.9254   -0.9711 H   0  0  0  0  0  0  0  0  0  0  0  0
    2.6106    3.9598    0.8511 H   0  0  0  0  0  0  0  0  0  0  0  0
    4.0877    4.0717   -0.0913 H   0  0  0  0  0  0  0  0  0  0  0  0
    5.0903    0.8954   -0.9712 H   0  0  0  0  0  0  0  0  0  0  0  0
    5.1137    0.9318    0.8471 H   0  0  0  0  0  0  0  0  0  0  0  0
    5.9680   -0.3174   -0.0477 H   0  0  0  0  0  0  0  0  0  0  0  0
   -2.4076   -2.7478   -2.3014 H   0  0  0  0  0  0  0  0  0  0  0  0
   -3.0357   -3.2538    1.9069 H   0  0  0  0  0  0  0  0  0  0  0  0
   -4.5452   -5.1495    1.4538 H   0  0  0  0  0  0  0  0  0  0  0  0
   -3.7822   -3.0668   -4.1772 H   0  0  0  0  0  0  0  0  0  0  0  0
   -2.3268   -4.1365   -4.0819 H   0  0  0  0  0  0  0  0  0  0  0  0
   -3.7240   -4.5998   -5.0560 H   0  0  0  0  0  0  0  0  0  0  0  0
   -6.1156   -5.8809   -2.5990 H   0  0  0  0  0  0  0  0  0  0  0  0
   -4.7588   -7.0857   -2.4943 H   0  0  0  0  0  0  0  0  0  0  0  0
   -6.3396   -7.4282   -1.7947 H   0  0  0  0  0  0  0  0  0  0  0  0
  1  2  2  0  0  0  0
  1  3  1  0  0  0  0
  1  4  1  0  0  0  0
  2  5  1  0  0  0  0
  2  6  1  0  0  0  0
  3  7  1  0  0  0  0
  3  8  2  0  0  0  0
  4  9  1  0  0  0  0
  4 10  2  0  0  0  0
  5 11  2  0  0  0  0
  5 12  1  0  0  0  0
  6 13  1  0  0  0  0
  7 14  1  0  0  0  0
  8 11  1  0  0  0  0
  8 28  1  0  0  0  0
  9 14  2  0  0  0  0
  9 29  1  0  0  0  0
 11 15  1  0  0  0  0
 12 16  1  0  0  0  0
 13 30  1  0  0  0  0
 13 31  1  0  0  0  0
 13 32  1  0  0  0  0
 14 17  1  0  0  0  0
 15 18  1  0  0  0  0
 16 33  1  0  0  0  0
 16 34  1  0  0  0  0
 16 35  1  0  0  0  0
 17 19  2  0  0  0  0
 17 20  1  0  0  0  0
 18 36  1  0  0  0  0
 18 37  1  0  0  0  0
 18 38  1  0  0  0  0
 19 21  1  0  0  0  0
 19 39  1  0  0  0  0
 20 22  2  0  0  0  0
 20 40  1  0  0  0  0
 21 23  2  0  0  0  0
 21 24  1  0  0  0  0
 22 23  1  0  0  0  0
 22 41  1  0  0  0  0
 23 25  1  0  0  0  0
 24 26  1  0  0  0  0
 25 27  1  0  0  0  0
 26 42  1  0  0  0  0
 26 43  1  0  0  0  0
 26 44  1  0  0  0  0
 27 45  1  0  0  0  0
 27 46  1  0  0  0  0
 27 47  1  0  0  0  0
M  END
>  <Mol_ID>
4477

>  <Formula>
C20H20O7

>  <MolWeight>
372.3686

>  <Cat>
S9227

>  <Name>
Sinensetin

>  <Synonyms>
Pedalitin Permethyl ether

>  <Target>
Others

>  <Form>
free base

>  <CAS>
2306-27-6

>  <URL>
https://www.selleckchem.com/products/sinensetin.html

$$$$
