S9220 Stylopine hydrochloride.cdx
 OpenBabel08302521203D

 42 47  0  0  0  0  0  0  0  0999 V2000
    3.7922   -2.3961   -0.2379 O   0  0  0  0  0  0  0  0  0  0  0  0
   13.5687   -1.6719    0.6660 O   0  0  0  0  0  0  0  0  0  0  0  0
    3.1644   -0.2888    0.7171 O   0  0  0  0  0  0  0  0  0  0  0  0
   14.2516   -3.7708    1.6318 O   0  0  0  0  0  0  0  0  0  0  0  0
    7.8779   -4.1139    0.7204 N   0  3  3  0  0  0  0  0  0  0  0  0
    8.8514   -3.0187    0.3219 C   0  0  1  0  0  0  0  0  0  0  0  0
    8.4959   -1.7854    1.1702 C   0  0  0  0  0  0  0  0  0  0  0  0
   10.3082   -3.3527    0.5477 C   0  0  0  0  0  0  0  0  0  0  0  0
    8.3994   -5.4805    0.3744 C   0  0  0  0  0  0  0  0  0  0  0  0
    6.4888   -3.7505    0.1963 C   0  0  0  0  0  0  0  0  0  0  0  0
    9.6982   -5.7364    1.1690 C   0  0  0  0  0  0  0  0  0  0  0  0
    7.0274   -1.4813    1.2049 C   0  0  0  0  0  0  0  0  0  0  0  0
   10.7088   -4.6211    1.0299 C   0  0  0  0  0  0  0  0  0  0  0  0
    6.0874   -2.3650    0.6370 C   0  0  0  0  0  0  0  0  0  0  0  0
   11.2654   -2.3444    0.3353 C   0  0  0  0  0  0  0  0  0  0  0  0
    4.8127   -1.8510    0.4837 C   0  0  0  0  0  0  0  0  0  0  0  0
   12.0476   -4.8187    1.4217 C   0  0  0  0  0  0  0  0  0  0  0  0
    6.6380   -0.2510    1.7783 C   0  0  0  0  0  0  0  0  0  0  0  0
   12.5567   -2.5736    0.7246 C   0  0  0  0  0  0  0  0  0  0  0  0
   12.9394   -3.7723    1.2750 C   0  0  0  0  0  0  0  0  0  0  0  0
    4.4469   -0.6266    1.0164 C   0  0  0  0  0  0  0  0  0  0  0  0
    5.3191    0.1688    1.7163 C   0  0  0  0  0  0  0  0  0  0  0  0
    2.9012   -1.2495   -0.3179 C   0  0  0  0  0  0  0  0  0  0  0  0
   14.6556   -2.4452    1.2146 C   0  0  0  0  0  0  0  0  0  0  0  0
    7.7968   -4.0885    1.7449 H   0  0  0  0  0  0  0  0  0  0  0  0
    8.6977   -2.8447   -0.7507 H   0  0  0  0  0  0  0  0  0  0  0  0
    8.8411   -1.9165    2.2064 H   0  0  0  0  0  0  0  0  0  0  0  0
    9.0010   -0.9054    0.7579 H   0  0  0  0  0  0  0  0  0  0  0  0
    7.6323   -6.2138    0.6494 H   0  0  0  0  0  0  0  0  0  0  0  0
    8.5653   -5.5135   -0.7080 H   0  0  0  0  0  0  0  0  0  0  0  0
    5.8036   -4.4982    0.6111 H   0  0  0  0  0  0  0  0  0  0  0  0
    6.5174   -3.8319   -0.8959 H   0  0  0  0  0  0  0  0  0  0  0  0
    9.4582   -5.8545    2.2324 H   0  0  0  0  0  0  0  0  0  0  0  0
   10.1376   -6.6787    0.8203 H   0  0  0  0  0  0  0  0  0  0  0  0
   11.0154   -1.3697   -0.0738 H   0  0  0  0  0  0  0  0  0  0  0  0
   12.3889   -5.7584    1.8461 H   0  0  0  0  0  0  0  0  0  0  0  0
    7.3778    0.3965    2.2486 H   0  0  0  0  0  0  0  0  0  0  0  0
    5.0063    1.1163    2.1424 H   0  0  0  0  0  0  0  0  0  0  0  0
    3.0545   -0.7518   -1.2868 H   0  0  0  0  0  0  0  0  0  0  0  0
    1.8605   -1.5793   -0.2542 H   0  0  0  0  0  0  0  0  0  0  0  0
   15.4321   -2.5375    0.4474 H   0  0  0  0  0  0  0  0  0  0  0  0
   15.0683   -1.9059    2.0755 H   0  0  0  0  0  0  0  0  0  0  0  0
  1 16  1  0  0  0  0
  1 23  1  0  0  0  0
  2 19  1  0  0  0  0
  2 24  1  0  0  0  0
  3 21  1  0  0  0  0
  3 23  1  0  0  0  0
  4 20  1  0  0  0  0
  4 24  1  0  0  0  0
  5  6  1  0  0  0  0
  5  9  1  0  0  0  0
  5 10  1  0  0  0  0
  5 25  1  0  0  0  0
  6  7  1  0  0  0  0
  6  8  1  0  0  0  0
  6 26  1  6  0  0  0
  7 12  1  0  0  0  0
  7 27  1  0  0  0  0
  7 28  1  0  0  0  0
  8 13  2  0  0  0  0
  8 15  1  0  0  0  0
  9 11  1  0  0  0  0
  9 29  1  0  0  0  0
  9 30  1  0  0  0  0
 10 14  1  0  0  0  0
 10 31  1  0  0  0  0
 10 32  1  0  0  0  0
 11 13  1  0  0  0  0
 11 33  1  0  0  0  0
 11 34  1  0  0  0  0
 12 14  1  0  0  0  0
 12 18  2  0  0  0  0
 13 17  1  0  0  0  0
 14 16  2  0  0  0  0
 15 19  2  0  0  0  0
 15 35  1  0  0  0  0
 16 21  1  0  0  0  0
 17 20  2  0  0  0  0
 17 36  1  0  0  0  0
 18 22  1  0  0  0  0
 18 37  1  0  0  0  0
 19 20  1  0  0  0  0
 21 22  2  0  0  0  0
 22 38  1  0  0  0  0
 23 39  1  0  0  0  0
 23 40  1  0  0  0  0
 24 41  1  0  0  0  0
 24 42  1  0  0  0  0
M  CHG  1   5   1
M  END
>  <Mol_ID>
4468

>  <Formula>
C19H18ClNO4

>  <MolWeight>
359.80352

>  <Cat>
S9220

>  <Name>
Stylopine hydrochloride

>  <Synonyms>
Tetrahydrocoptisine hydrochloride, Coptisine hydrochloride

>  <Target>
Immunology & Inflammation related

>  <Form>
free base

>  <CAS>
96087-21-7

>  <URL>
https://www.selleckchem.com/products/stylopine-hydrochloride.html

$$$$
