S9221 Ferulaldehyde.cdx
 OpenBabel08302521203D

 23 23  0  0  0  0  0  0  0  0999 V2000
   -1.2896   -1.1455    0.0155 C   0  0  0  0  0  0  0  0  0  0  0  0
    0.1179   -1.2168    0.0065 C   0  0  0  0  0  0  0  0  0  0  0  0
   -1.9025    0.1181   -0.0046 C   0  0  0  0  0  0  0  0  0  0  0  0
   -2.0801   -2.3931    0.0002 C   0  0  0  0  0  0  0  0  0  0  0  0
    0.8922   -0.0503    0.0111 C   0  0  0  0  0  0  0  0  0  0  0  0
   -1.1369    1.2845    0.0018 C   0  0  0  0  0  0  0  0  0  0  0  0
   -3.2990   -2.5040    0.5507 C   0  0  0  0  0  0  0  0  0  0  0  0
    0.2458    1.1896    0.0134 C   0  0  0  0  0  0  0  0  0  0  0  0
    2.2619    0.0209    0.0148 O   0  0  0  0  0  0  0  0  0  0  0  0
   -4.0544   -3.7763    0.5199 C   0  0  0  0  0  0  0  0  0  0  0  0
    0.9703    2.3504    0.0250 O   0  0  0  0  0  0  0  0  0  0  0  0
    2.9715   -1.2115    0.0161 C   0  0  0  0  0  0  0  0  0  0  0  0
   -5.1678   -3.8654    1.0258 O   0  0  0  0  0  0  0  0  0  0  0  0
    0.5914   -2.1933    0.0084 H   0  0  0  0  0  0  0  0  0  0  0  0
   -2.9847    0.2177   -0.0306 H   0  0  0  0  0  0  0  0  0  0  0  0
   -1.6065   -3.2484   -0.4788 H   0  0  0  0  0  0  0  0  0  0  0  0
   -1.6156    2.2591   -0.0039 H   0  0  0  0  0  0  0  0  0  0  0  0
   -3.8050   -1.6907    1.0563 H   0  0  0  0  0  0  0  0  0  0  0  0
   -3.5631   -4.6274    0.0223 H   0  0  0  0  0  0  0  0  0  0  0  0
    1.9052    2.0678    0.0398 H   0  0  0  0  0  0  0  0  0  0  0  0
    2.7658   -1.7821    0.9274 H   0  0  0  0  0  0  0  0  0  0  0  0
    2.7464   -1.7979   -0.8803 H   0  0  0  0  0  0  0  0  0  0  0  0
    4.0413   -0.9800    0.0016 H   0  0  0  0  0  0  0  0  0  0  0  0
  1  2  2  0  0  0  0
  1  3  1  0  0  0  0
  1  4  1  0  0  0  0
  2  5  1  0  0  0  0
  2 14  1  0  0  0  0
  3  6  2  0  0  0  0
  3 15  1  0  0  0  0
  4  7  2  0  0  0  0
  4 16  1  0  0  0  0
  5  8  2  0  0  0  0
  5  9  1  0  0  0  0
  6  8  1  0  0  0  0
  6 17  1  0  0  0  0
  7 10  1  0  0  0  0
  7 18  1  0  0  0  0
  8 11  1  0  0  0  0
  9 12  1  0  0  0  0
 10 13  2  0  0  0  0
 10 19  1  0  0  0  0
 11 20  1  0  0  0  0
 12 21  1  0  0  0  0
 12 22  1  0  0  0  0
 12 23  1  0  0  0  0
M  END
>  <Mol_ID>
4469

>  <Formula>
C10H10O3

>  <MolWeight>
178.1846

>  <Cat>
S9221

>  <Name>
Ferulaldehyde

>  <Synonyms>
Coniferaldehyde, Ferulyl aldehyde

>  <Target>
Heme Oxygenase

>  <Form>
free base

>  <CAS>
458-36-6

>  <URL>
https://www.selleckchem.com/products/ferulaldehyde.html

$$$$
