S9233 Imperialine.cdx
 OpenBabel08302521302D

 74 79  0  0  0  0  0  0  0  0999 V2000
    1.2133    2.1041    0.0000 C   0  0  1  0  0  0  0  0  0  0  0  0
    1.2149    3.5042    0.0000 C   0  0  0  0  0  0  0  0  0  0  0  0
    2.4280    4.2029    0.0000 C   0  0  0  0  0  0  0  0  0  0  0  0
    2.4249    1.4028    0.0000 C   0  0  0  0  0  0  0  0  0  0  0  0
    3.6382    2.1016    0.0000 C   0  0  2  0  0  0  0  0  0  0  0  0
    4.8499    1.4001    0.0000 C   0  0  0  0  0  0  0  0  0  0  0  0
    6.0631    2.0987    0.0000 C   0  0  0  0  0  0  0  0  0  0  0  0
    6.0648    3.4988    0.0000 C   0  0  1  0  0  0  0  0  0  0  0  0
    7.1062    4.4344    0.0000 C   0  0  2  0  0  0  0  0  0  0  0  0
    8.4985    4.2864    0.0000 C   0  0  0  0  0  0  0  0  0  0  0  0
    9.3226    5.4182    0.0000 C   0  0  0  0  0  0  0  0  0  0  0  0
    8.7546    6.6978    0.0000 C   0  0  1  0  0  0  0  0  0  0  0  0
    9.5789    7.8296    0.0000 C   0  0  1  0  0  0  0  0  0  0  0  0
   10.7428    7.1509    0.0000 C   0  0  0  0  0  0  0  0  0  0  0  0
    9.0107    9.1092    0.0000 C   0  0  2  0  0  0  0  0  0  0  0  0
    9.8350   10.2408    0.0000 C   0  0  0  0  0  0  0  0  0  0  0  0
    9.2654   11.5136    0.0000 C   0  0  0  0  0  0  0  0  0  0  0  0
    7.8747   11.6683    0.0000 C   0  0  2  0  0  0  0  0  0  0  0  0
    7.3066   12.9471    0.0000 C   0  0  0  0  0  0  0  0  0  0  0  0
    7.0506   10.5365    0.0000 C   0  0  0  0  0  0  0  0  0  0  0  0
    7.6186    9.2571    0.0000 N   0  0  3  0  0  0  0  0  0  0  0  0
    6.7944    8.1253    0.0000 C   0  0  0  0  0  0  0  0  0  0  0  0
    7.3623    6.8458    0.0000 C   0  0  1  0  0  0  0  0  0  0  0  0
    6.5382    5.7140    0.0000 C   0  0  2  0  0  0  0  0  0  0  0  0
    5.1457    5.5692    0.0000 C   0  0  0  0  0  0  0  0  0  0  0  0
    4.8531    4.2001    0.0000 C   0  0  2  0  0  0  0  0  0  0  0  0
    3.6397    3.5015    0.0000 C   0  0  1  0  0  0  0  0  0  0  0  0
    4.8482    0.0000    0.0000 O   0  0  0  0  0  0  0  0  0  0  0  0
   10.8802    8.4833    0.0000 O   0  0  0  0  0  0  0  0  0  0  0  0
    0.0000    1.4055    0.0000 O   0  0  0  0  0  0  0  0  0  0  0  0
    3.6413    4.9015    0.0000 C   0  0  0  0  0  0  0  0  0  0  0  0
    0.2873    2.6402    0.0000 H   0  0  0  0  0  0  0  0  0  0  0  0
    0.2888    4.0402    0.0000 H   0  0  0  0  0  0  0  0  0  0  0  0
    1.2160    4.5742    0.0000 H   0  0  0  0  0  0  0  0  0  0  0  0
    2.4292    5.2729    0.0000 H   0  0  0  0  0  0  0  0  0  0  0  0
    3.3552    4.7369    0.0000 H   0  0  0  0  0  0  0  0  0  0  0  0
    2.4237    0.3328    0.0000 H   0  0  0  0  0  0  0  0  0  0  0  0
    3.3510    0.8668    0.0000 H   0  0  0  0  0  0  0  0  0  0  0  0
    3.6370    1.0316    0.0000 H   0  0  0  0  0  0  0  0  0  0  0  0
    6.9891    1.5626    0.0000 H   0  0  0  0  0  0  0  0  0  0  0  0
    6.9904    2.6326    0.0000 H   0  0  0  0  0  0  0  0  0  0  0  0
    7.0418    3.0625    0.0000 H   0  0  0  0  0  0  0  0  0  0  0  0
    7.4357    3.4164    0.0000 H   0  0  0  0  0  0  0  0  0  0  0  0
    8.9326    3.3084    0.0000 H   0  0  0  0  0  0  0  0  0  0  0  0
    9.5625    4.1734    0.0000 H   0  0  0  0  0  0  0  0  0  0  0  0
   10.3866    5.3052    0.0000 H   0  0  0  0  0  0  0  0  0  0  0  0
    9.9525    6.2832    0.0000 H   0  0  0  0  0  0  0  0  0  0  0  0
    9.8186    6.5847    0.0000 H   0  0  0  0  0  0  0  0  0  0  0  0
   10.7382    6.0809    0.0000 H   0  0  0  0  0  0  0  0  0  0  0  0
   11.6718    7.6819    0.0000 H   0  0  0  0  0  0  0  0  0  0  0  0
   11.6671    6.6119    0.0000 H   0  0  0  0  0  0  0  0  0  0  0  0
   10.0747    8.9962    0.0000 H   0  0  0  0  0  0  0  0  0  0  0  0
   10.8992   10.1293    0.0000 H   0  0  0  0  0  0  0  0  0  0  0  0
   10.4630   11.1072    0.0000 H   0  0  0  0  0  0  0  0  0  0  0  0
    9.8961   12.3779    0.0000 H   0  0  0  0  0  0  0  0  0  0  0  0
    8.8342   12.4929    0.0000 H   0  0  0  0  0  0  0  0  0  0  0  0
    8.5066   12.5318    0.0000 H   0  0  0  0  0  0  0  0  0  0  0  0
    7.9362   13.8122    0.0000 H   0  0  0  0  0  0  0  0  0  0  0  0
    6.2426   13.0598    0.0000 H   0  0  0  0  0  0  0  0  0  0  0  0
    6.8722   13.9250    0.0000 H   0  0  0  0  0  0  0  0  0  0  0  0
    5.9866   10.6495    0.0000 H   0  0  0  0  0  0  0  0  0  0  0  0
    6.4208    9.6715    0.0000 H   0  0  0  0  0  0  0  0  0  0  0  0
    5.7304    8.2383    0.0000 H   0  0  0  0  0  0  0  0  0  0  0  0
    6.1645    7.2604    0.0000 H   0  0  0  0  0  0  0  0  0  0  0  0
    7.9922    7.7107    0.0000 H   0  0  0  0  0  0  0  0  0  0  0  0
    6.0022    4.7879    0.0000 H   0  0  0  0  0  0  0  0  0  0  0  0
    4.4306    6.3652    0.0000 H   0  0  0  0  0  0  0  0  0  0  0  0
    4.1119    5.2934    0.0000 H   0  0  0  0  0  0  0  0  0  0  0  0
    5.8311    4.6342    0.0000 H   0  0  0  0  0  0  0  0  0  0  0  0
   11.6907    7.9504    0.0000 H   0  0  0  0  0  0  0  0  0  0  0  0
   -0.8395    1.8915    0.0000 H   0  0  0  0  0  0  0  0  0  0  0  0
    4.5686    5.4354    0.0000 H   0  0  0  0  0  0  0  0  0  0  0  0
    2.7153    5.4376    0.0000 H   0  0  0  0  0  0  0  0  0  0  0  0
    3.6425    5.9715    0.0000 H   0  0  0  0  0  0  0  0  0  0  0  0
  1  2  1  0  0  0  0
  1  4  1  0  0  0  0
  1 30  1  0  0  0  0
  1 32  1  6  0  0  0
  2  3  1  0  0  0  0
  2 33  1  0  0  0  0
  2 34  1  0  0  0  0
  3 27  1  0  0  0  0
  3 35  1  0  0  0  0
  3 36  1  0  0  0  0
  4 37  1  0  0  0  0
  4 38  1  0  0  0  0
  5  4  1  0  0  0  0
  5  6  1  0  0  0  0
  5 27  1  0  0  0  0
  5 39  1  6  0  0  0
  6  7  1  0  0  0  0
  6 28  2  0  0  0  0
  7 40  1  0  0  0  0
  7 41  1  0  0  0  0
  8  7  1  0  0  0  0
  8  9  1  0  0  0  0
  8 26  1  0  0  0  0
  8 42  1  1  0  0  0
  9 10  1  0  0  0  0
  9 24  1  0  0  0  0
  9 43  1  6  0  0  0
 10 11  1  0  0  0  0
 10 44  1  0  0  0  0
 10 45  1  0  0  0  0
 11 46  1  0  0  0  0
 11 47  1  0  0  0  0
 12 11  1  0  0  0  0
 12 13  1  0  0  0  0
 12 23  1  0  0  0  0
 12 48  1  1  0  0  0
 13 14  1  0  0  0  0
 13 15  1  0  0  0  0
 13 29  1  1  0  0  0
 14 49  1  0  0  0  0
 14 50  1  0  0  0  0
 14 51  1  0  0  0  0
 15 16  1  0  0  0  0
 15 21  1  0  0  0  0
 15 52  1  6  0  0  0
 16 17  1  0  0  0  0
 16 53  1  0  0  0  0
 16 54  1  0  0  0  0
 17 18  1  0  0  0  0
 17 55  1  0  0  0  0
 17 56  1  0  0  0  0
 18 19  1  0  0  0  0
 18 20  1  0  0  0  0
 18 57  1  6  0  0  0
 19 58  1  0  0  0  0
 19 59  1  0  0  0  0
 19 60  1  0  0  0  0
 20 21  1  0  0  0  0
 20 61  1  0  0  0  0
 20 62  1  0  0  0  0
 21 22  1  0  0  0  0
 22 63  1  0  0  0  0
 22 64  1  0  0  0  0
 23 22  1  0  0  0  0
 23 24  1  0  0  0  0
 23 65  1  1  0  0  0
 24 25  1  0  0  0  0
 24 66  1  6  0  0  0
 25 67  1  0  0  0  0
 25 68  1  0  0  0  0
 26 25  1  0  0  0  0
 26 27  1  0  0  0  0
 26 69  1  6  0  0  0
 27 31  1  1  0  0  0
 29 70  1  0  0  0  0
 30 71  1  0  0  0  0
 31 72  1  0  0  0  0
 31 73  1  0  0  0  0
 31 74  1  0  0  0  0
M  END
>  <Mol_ID>
4482

>  <Formula>
C27H43NO3

>  <MolWeight>
429.63522

>  <Cat>
S9233

>  <Name>
Imperialine

>  <Synonyms>
Sipeimine, Kashmirine

>  <Target>
ADC Cytotoxin

>  <Form>
free base

>  <CAS>
61825-98-7

>  <URL>
https://www.selleckchem.com/products/imperialine.html

$$$$
