S9251 Oxypeucedanin.cdx
 OpenBabel08302521203D

 35 38  0  0  0  0  0  0  0  0999 V2000
   -0.5874    0.9391    0.5188 C   0  0  0  0  0  0  0  0  0  0  0  0
   -0.6137   -0.4708    0.4106 C   0  0  0  0  0  0  0  0  0  0  0  0
   -1.9096    1.5681    0.6236 C   0  0  0  0  0  0  0  0  0  0  0  0
    0.6768    1.6002    0.5009 C   0  0  0  0  0  0  0  0  0  0  0  0
    0.5190   -1.2798    0.3308 C   0  0  0  0  0  0  0  0  0  0  0  0
   -1.8316   -1.1958    0.3117 O   0  0  0  0  0  0  0  0  0  0  0  0
   -3.0423    0.8753    0.4751 C   0  0  0  0  0  0  0  0  0  0  0  0
    1.8384    0.7822    0.3840 C   0  0  0  0  0  0  0  0  0  0  0  0
    1.7197   -0.5985    0.3134 C   0  0  0  0  0  0  0  0  0  0  0  0
   -3.0559   -0.5651    0.2213 C   0  0  0  0  0  0  0  0  0  0  0  0
    3.2414    1.0345    0.2966 C   0  0  0  0  0  0  0  0  0  0  0  0
    2.9421   -1.1865    0.2006 O   0  0  0  0  0  0  0  0  0  0  0  0
    3.8607   -0.1872    0.1847 C   0  0  0  0  0  0  0  0  0  0  0  0
   -4.0987   -1.1595   -0.0177 O   0  0  0  0  0  0  0  0  0  0  0  0
    0.9647    2.9355    0.5074 O   0  0  0  0  0  0  0  0  0  0  0  0
    0.0354    3.8859    0.9975 C   0  0  0  0  0  0  0  0  0  0  0  0
    0.7067    5.2116    1.1792 C   0  0  3  0  0  0  0  0  0  0  0  0
    1.7431    5.5399    2.2444 C   0  0  0  0  0  0  0  0  0  0  0  0
    0.3524    5.8617    2.4100 O   0  0  0  0  0  0  0  0  0  0  0  0
    2.2497    4.4966    3.1850 C   0  0  0  0  0  0  0  0  0  0  0  0
    2.6012    6.7544    2.0462 C   0  0  0  0  0  0  0  0  0  0  0  0
   -2.0212    2.6145    0.8475 H   0  0  0  0  0  0  0  0  0  0  0  0
    0.4664   -2.3585    0.2507 H   0  0  0  0  0  0  0  0  0  0  0  0
   -4.0152    1.3491    0.5468 H   0  0  0  0  0  0  0  0  0  0  0  0
    3.7278    1.9990    0.3028 H   0  0  0  0  0  0  0  0  0  0  0  0
    4.8901   -0.5017    0.0834 H   0  0  0  0  0  0  0  0  0  0  0  0
   -0.7395    4.0409    0.2399 H   0  0  0  0  0  0  0  0  0  0  0  0
   -0.4038    3.5520    1.9443 H   0  0  0  0  0  0  0  0  0  0  0  0
    0.7003    5.8021    0.2712 H   0  0  0  0  0  0  0  0  0  0  0  0
    1.5089    3.7176    3.3921 H   0  0  0  0  0  0  0  0  0  0  0  0
    3.1399    4.0141    2.7676 H   0  0  0  0  0  0  0  0  0  0  0  0
    2.5259    4.9479    4.1439 H   0  0  0  0  0  0  0  0  0  0  0  0
    2.9778    6.7939    1.0191 H   0  0  0  0  0  0  0  0  0  0  0  0
    2.0367    7.6742    2.2367 H   0  0  0  0  0  0  0  0  0  0  0  0
    3.4639    6.7519    2.7197 H   0  0  0  0  0  0  0  0  0  0  0  0
  1  2  2  0  0  0  0
  1  3  1  0  0  0  0
  1  4  1  0  0  0  0
  2  5  1  0  0  0  0
  2  6  1  0  0  0  0
  3  7  2  0  0  0  0
  3 22  1  0  0  0  0
  4  8  2  0  0  0  0
  4 15  1  0  0  0  0
  5  9  2  0  0  0  0
  5 23  1  0  0  0  0
  6 10  1  0  0  0  0
  7 10  1  0  0  0  0
  7 24  1  0  0  0  0
  8 11  1  0  0  0  0
  8  9  1  0  0  0  0
  9 12  1  0  0  0  0
 10 14  2  0  0  0  0
 11 13  2  0  0  0  0
 11 25  1  0  0  0  0
 12 13  1  0  0  0  0
 13 26  1  0  0  0  0
 15 16  1  0  0  0  0
 16 17  1  0  0  0  0
 16 27  1  0  0  0  0
 16 28  1  0  0  0  0
 17 18  1  0  0  0  0
 17 19  1  0  0  0  0
 17 29  1  0  0  0  0
 18 20  1  0  0  0  0
 18 21  1  0  0  0  0
 18 19  1  0  0  0  0
 20 30  1  0  0  0  0
 20 31  1  0  0  0  0
 20 32  1  0  0  0  0
 21 33  1  0  0  0  0
 21 34  1  0  0  0  0
 21 35  1  0  0  0  0
M  END
>  <Mol_ID>
4495

>  <Formula>
C16H14O5

>  <MolWeight>
286.27936

>  <Cat>
S9251

>  <Name>
Oxypeucedanin

>  <Target>
Potassium Channel

>  <Form>
free base

>  <CAS>
737-52-0

>  <URL>
https://www.selleckchem.com/products/oxypeucedanin.html

$$$$
