S9272 Koumine.cdx
 OpenBabel08302521213D

 45 50  0  0  0  0  0  0  0  0999 V2000
   -0.9874   -3.4515    3.2857 C   0  0  0  0  0  0  0  0  0  0  0  0
   -1.2572   -1.9218    3.3443 C   0  0  1  0  0  0  0  0  0  0  0  0
   -0.1227   -1.2156    4.1846 C   0  0  1  0  0  0  0  0  0  0  0  0
    1.2704   -1.5929    3.6042 C   0  0  3  0  0  0  0  0  0  0  0  0
    1.1143   -2.5503    2.3906 C   0  0  3  0  0  0  0  0  0  0  0  0
    0.3993   -3.6864    2.9538 N   0  0  0  0  0  0  0  0  0  0  0  0
   -1.0637   -1.3846    1.8668 C   0  0  3  0  0  0  0  0  0  0  0  0
   -0.9933    0.1528    1.8637 C   0  0  0  0  0  0  0  0  0  0  0  0
   -0.0032    0.8426    2.7961 C   0  0  1  0  0  0  0  0  0  0  0  0
   -0.3337    0.3227    4.1876 C   0  0  0  0  0  0  0  0  0  0  0  0
   -2.1412   -1.5593    0.8232 C   0  0  0  0  0  0  0  0  0  0  0  0
   -2.5146   -0.2967    0.3786 C   0  0  0  0  0  0  0  0  0  0  0  0
   -1.8224    0.7456    1.0445 N   0  0  0  0  0  0  0  0  0  0  0  0
   -2.5818   -2.7114    0.1988 C   0  0  0  0  0  0  0  0  0  0  0  0
   -3.4389   -2.5826   -0.8926 C   0  0  0  0  0  0  0  0  0  0  0  0
   -3.8384   -1.3097   -1.3336 C   0  0  0  0  0  0  0  0  0  0  0  0
   -3.3708   -0.1536   -0.6974 C   0  0  0  0  0  0  0  0  0  0  0  0
    1.3561    0.5671    2.4368 O   0  0  0  0  0  0  0  0  0  0  0  0
    0.7872   -5.0415    2.6787 C   0  0  0  0  0  0  0  0  0  0  0  0
    0.2832   -1.9052    1.2773 C   0  0  0  0  0  0  0  0  0  0  0  0
   -2.4896   -1.7803    4.2288 C   0  0  0  0  0  0  0  0  0  0  0  0
   -3.6377   -1.1183    4.0842 C   0  0  0  0  0  0  0  0  0  0  0  0
    2.0667   -0.3285    3.2971 C   0  0  0  0  0  0  0  0  0  0  0  0
   -1.6752   -3.9268    2.5755 H   0  0  0  0  0  0  0  0  0  0  0  0
   -1.1811   -3.9280    4.2533 H   0  0  0  0  0  0  0  0  0  0  0  0
   -0.1565   -1.5582    5.2273 H   0  0  0  0  0  0  0  0  0  0  0  0
    1.8201   -2.1465    4.3805 H   0  0  0  0  0  0  0  0  0  0  0  0
    2.0983   -2.8410    2.0047 H   0  0  0  0  0  0  0  0  0  0  0  0
   -0.1455    1.9251    2.7255 H   0  0  0  0  0  0  0  0  0  0  0  0
    0.3122    0.7912    4.9386 H   0  0  0  0  0  0  0  0  0  0  0  0
   -1.3609    0.5954    4.4525 H   0  0  0  0  0  0  0  0  0  0  0  0
   -2.2132   -3.6919    0.4784 H   0  0  0  0  0  0  0  0  0  0  0  0
   -3.7635   -3.4698   -1.4287 H   0  0  0  0  0  0  0  0  0  0  0  0
   -4.4852   -1.2306   -2.2047 H   0  0  0  0  0  0  0  0  0  0  0  0
   -3.6379    0.8324   -1.0705 H   0  0  0  0  0  0  0  0  0  0  0  0
    0.4185   -5.4180    1.7204 H   0  0  0  0  0  0  0  0  0  0  0  0
    0.3964   -5.6920    3.4715 H   0  0  0  0  0  0  0  0  0  0  0  0
    1.8755   -5.1453    2.7118 H   0  0  0  0  0  0  0  0  0  0  0  0
    0.8536   -1.1006    0.7924 H   0  0  0  0  0  0  0  0  0  0  0  0
    0.1290   -2.6391    0.4763 H   0  0  0  0  0  0  0  0  0  0  0  0
   -2.3741   -2.2841    5.1983 H   0  0  0  0  0  0  0  0  0  0  0  0
   -4.3472   -1.1295    4.9116 H   0  0  0  0  0  0  0  0  0  0  0  0
   -3.8864   -0.5452    3.2033 H   0  0  0  0  0  0  0  0  0  0  0  0
    2.3087    0.1944    4.2324 H   0  0  0  0  0  0  0  0  0  0  0  0
    3.0277   -0.5784    2.8364 H   0  0  0  0  0  0  0  0  0  0  0  0
  1  2  1  0  0  0  0
  1  6  1  0  0  0  0
  1 24  1  0  0  0  0
  1 25  1  0  0  0  0
  2  3  1  0  0  0  0
  2 21  1  1  0  0  0
  3 10  1  0  0  0  0
  3  4  1  0  0  0  0
  3 26  1  1  0  0  0
  4  5  1  0  0  0  0
  4 23  1  0  0  0  0
  4 27  1  0  0  0  0
  5  6  1  0  0  0  0
  5 20  1  0  0  0  0
  5 28  1  0  0  0  0
  6 19  1  0  0  0  0
  7 11  1  0  0  0  0
  7  8  1  0  0  0  0
  7  2  1  0  0  0  0
  7 20  1  0  0  0  0
  8  9  1  0  0  0  0
  9 18  1  0  0  0  0
  9 10  1  0  0  0  0
  9 29  1  6  0  0  0
 10 30  1  0  0  0  0
 10 31  1  0  0  0  0
 11 12  2  0  0  0  0
 11 14  1  0  0  0  0
 12 13  1  0  0  0  0
 13  8  2  0  0  0  0
 14 32  1  0  0  0  0
 15 16  1  0  0  0  0
 15 14  2  0  0  0  0
 15 33  1  0  0  0  0
 16 17  2  0  0  0  0
 16 34  1  0  0  0  0
 17 12  1  0  0  0  0
 17 35  1  0  0  0  0
 18 23  1  0  0  0  0
 19 36  1  0  0  0  0
 19 37  1  0  0  0  0
 19 38  1  0  0  0  0
 20 39  1  0  0  0  0
 20 40  1  0  0  0  0
 21 22  2  0  0  0  0
 21 41  1  0  0  0  0
 22 42  1  0  0  0  0
 22 43  1  0  0  0  0
 23 44  1  0  0  0  0
 23 45  1  0  0  0  0
M  END
>  <Mol_ID>
4508

>  <Formula>
C20H22N2O

>  <MolWeight>
306.40148

>  <Cat>
S9272

>  <Name>
Koumine

>  <Target>
Immunology & Inflammation related

>  <Form>
free base

>  <CAS>
1358-76-5

>  <URL>
https://www.selleckchem.com/products/koumine.html

$$$$
