S9287 Genkwanin.cdx
 OpenBabel08302521213D

 33 35  0  0  0  0  0  0  0  0999 V2000
    0.0548    0.2572   -0.0004 C   0  0  0  0  0  0  0  0  0  0  0  0
   -0.1044   -1.1310   -0.0011 C   0  0  0  0  0  0  0  0  0  0  0  0
   -1.1657    1.0969   -0.0038 C   0  0  0  0  0  0  0  0  0  0  0  0
    1.3487    0.7937    0.0005 C   0  0  0  0  0  0  0  0  0  0  0  0
   -1.3344   -1.7507    0.0030 O   0  0  0  0  0  0  0  0  0  0  0  0
    1.0151   -1.9690   -0.0076 C   0  0  0  0  0  0  0  0  0  0  0  0
   -2.4517    0.3852    0.0001 C   0  0  0  0  0  0  0  0  0  0  0  0
   -1.1699    2.3210   -0.0118 O   0  0  0  0  0  0  0  0  0  0  0  0
    2.4687   -0.0459   -0.0073 C   0  0  0  0  0  0  0  0  0  0  0  0
    1.5455    2.1449    0.0085 O   0  0  0  0  0  0  0  0  0  0  0  0
   -2.4604   -0.9526    0.0056 C   0  0  0  0  0  0  0  0  0  0  0  0
    2.3056   -1.4314   -0.0143 C   0  0  0  0  0  0  0  0  0  0  0  0
   -3.7381   -1.6716    0.0183 C   0  0  0  0  0  0  0  0  0  0  0  0
    3.3177   -2.3522   -0.0282 O   0  0  0  0  0  0  0  0  0  0  0  0
   -4.3675   -2.0222   -1.1844 C   0  0  0  0  0  0  0  0  0  0  0  0
   -4.3721   -1.9600    1.2339 C   0  0  0  0  0  0  0  0  0  0  0  0
    4.6496   -1.8484   -0.0452 C   0  0  0  0  0  0  0  0  0  0  0  0
   -5.6152   -2.6531   -1.1726 C   0  0  0  0  0  0  0  0  0  0  0  0
   -5.6188   -2.5899    1.2454 C   0  0  0  0  0  0  0  0  0  0  0  0
   -6.2296   -2.9313    0.0443 C   0  0  0  0  0  0  0  0  0  0  0  0
   -7.4479   -3.5405    0.1035 O   0  0  0  0  0  0  0  0  0  0  0  0
    0.8823   -3.0492   -0.0094 H   0  0  0  0  0  0  0  0  0  0  0  0
   -3.3487    0.9914    0.0004 H   0  0  0  0  0  0  0  0  0  0  0  0
    3.4575    0.3981   -0.0096 H   0  0  0  0  0  0  0  0  0  0  0  0
    2.4911    2.3576    0.0305 H   0  0  0  0  0  0  0  0  0  0  0  0
   -3.8937   -1.7960   -2.1369 H   0  0  0  0  0  0  0  0  0  0  0  0
   -3.9056   -1.6885    2.1781 H   0  0  0  0  0  0  0  0  0  0  0  0
    4.8351   -1.2517   -0.9450 H   0  0  0  0  0  0  0  0  0  0  0  0
    4.8634   -1.2714    0.8609 H   0  0  0  0  0  0  0  0  0  0  0  0
    5.3339   -2.7015   -0.0657 H   0  0  0  0  0  0  0  0  0  0  0  0
   -6.0895   -2.9103   -2.1144 H   0  0  0  0  0  0  0  0  0  0  0  0
   -6.1133   -2.8081    2.1874 H   0  0  0  0  0  0  0  0  0  0  0  0
   -7.7443   -3.7344   -0.8007 H   0  0  0  0  0  0  0  0  0  0  0  0
  1  2  2  0  0  0  0
  1  3  1  0  0  0  0
  1  4  1  0  0  0  0
  2  5  1  0  0  0  0
  2  6  1  0  0  0  0
  3  7  1  0  0  0  0
  3  8  2  0  0  0  0
  4  9  2  0  0  0  0
  4 10  1  0  0  0  0
  5 11  1  0  0  0  0
  6 12  2  0  0  0  0
  6 22  1  0  0  0  0
  7 11  2  0  0  0  0
  7 23  1  0  0  0  0
  9 12  1  0  0  0  0
  9 24  1  0  0  0  0
 10 25  1  0  0  0  0
 11 13  1  0  0  0  0
 12 14  1  0  0  0  0
 13 15  2  0  0  0  0
 13 16  1  0  0  0  0
 14 17  1  0  0  0  0
 15 18  1  0  0  0  0
 15 26  1  0  0  0  0
 16 19  2  0  0  0  0
 16 27  1  0  0  0  0
 17 28  1  0  0  0  0
 17 29  1  0  0  0  0
 17 30  1  0  0  0  0
 18 20  2  0  0  0  0
 18 31  1  0  0  0  0
 19 20  1  0  0  0  0
 19 32  1  0  0  0  0
 20 21  1  0  0  0  0
 21 33  1  0  0  0  0
M  END
>  <Mol_ID>
4522

>  <Formula>
C16H12O5

>  <MolWeight>
284.26348

>  <Cat>
S9287

>  <Name>
Genkwanin

>  <Synonyms>
Apigenin 7-methyl ether

>  <Target>
Immunology & Inflammation related

>  <Form>
free base

>  <CAS>
437-64-9

>  <URL>
https://www.selleckchem.com/products/genkwanin.html

$$$$
