S9280 Demethoxycurcumin.cdx
 OpenBabel08302521213D

 43 44  0  0  0  0  0  0  0  0999 V2000
   -1.3094   -1.1352    0.0361 C   0  0  0  0  0  0  0  0  0  0  0  0
    0.0006   -1.1474   -0.4814 C   0  0  0  0  0  0  0  0  0  0  0  0
   -1.8153    0.0571    0.5782 C   0  0  0  0  0  0  0  0  0  0  0  0
   -2.0890   -2.3867    0.0382 C   0  0  0  0  0  0  0  0  0  0  0  0
    0.7756    0.0165   -0.4853 C   0  0  0  0  0  0  0  0  0  0  0  0
   -1.0466    1.2213    0.5795 C   0  0  0  0  0  0  0  0  0  0  0  0
   -3.4275   -2.4379   -0.0487 C   0  0  0  0  0  0  0  0  0  0  0  0
    0.2339    1.1898    0.0487 C   0  0  0  0  0  0  0  0  0  0  0  0
    2.0517    0.1464   -0.9707 O   0  0  0  0  0  0  0  0  0  0  0  0
   -4.1482   -3.7444   -0.0421 C   0  0  0  0  0  0  0  0  0  0  0  0
    0.9670    2.3452    0.0638 O   0  0  0  0  0  0  0  0  0  0  0  0
    2.6481   -1.0159   -1.5327 C   0  0  0  0  0  0  0  0  0  0  0  0
   -5.6535   -3.6915   -0.0904 C   0  0  0  0  0  0  0  0  0  0  0  0
   -3.5460   -4.8123    0.0442 O   0  0  0  0  0  0  0  0  0  0  0  0
   -6.2728   -3.6205    1.2787 C   0  0  0  0  0  0  0  0  0  0  0  0
   -6.0366   -4.7754    2.1894 C   0  0  0  0  0  0  0  0  0  0  0  0
   -6.9470   -2.6527    1.6255 O   0  0  0  0  0  0  0  0  0  0  0  0
   -6.5075   -4.7735    3.4454 C   0  0  0  0  0  0  0  0  0  0  0  0
   -6.2844   -5.8703    4.3981 C   0  0  0  0  0  0  0  0  0  0  0  0
   -5.1301   -6.6696    4.3658 C   0  0  0  0  0  0  0  0  0  0  0  0
   -7.2312   -6.0982    5.4068 C   0  0  0  0  0  0  0  0  0  0  0  0
   -4.9420   -7.6944    5.2973 C   0  0  0  0  0  0  0  0  0  0  0  0
   -7.0436   -7.1214    6.3397 C   0  0  0  0  0  0  0  0  0  0  0  0
   -5.9044   -7.9132    6.2760 C   0  0  0  0  0  0  0  0  0  0  0  0
   -5.7598   -8.8995    7.2044 O   0  0  0  0  0  0  0  0  0  0  0  0
    0.3923   -2.0759   -0.8848 H   0  0  0  0  0  0  0  0  0  0  0  0
   -2.8084    0.0990    1.0181 H   0  0  0  0  0  0  0  0  0  0  0  0
   -1.5113   -3.3083    0.0997 H   0  0  0  0  0  0  0  0  0  0  0  0
   -1.4407    2.1435    0.9958 H   0  0  0  0  0  0  0  0  0  0  0  0
   -4.0416   -1.5488   -0.1275 H   0  0  0  0  0  0  0  0  0  0  0  0
    1.8231    2.1065   -0.3419 H   0  0  0  0  0  0  0  0  0  0  0  0
    2.7737   -1.7971   -0.7763 H   0  0  0  0  0  0  0  0  0  0  0  0
    2.0745   -1.3808   -2.3908 H   0  0  0  0  0  0  0  0  0  0  0  0
    3.6433   -0.7372   -1.8933 H   0  0  0  0  0  0  0  0  0  0  0  0
   -5.9749   -2.8228   -0.6764 H   0  0  0  0  0  0  0  0  0  0  0  0
   -6.0351   -4.5718   -0.6193 H   0  0  0  0  0  0  0  0  0  0  0  0
   -5.4624   -5.6013    1.7844 H   0  0  0  0  0  0  0  0  0  0  0  0
   -7.1011   -3.9352    3.8075 H   0  0  0  0  0  0  0  0  0  0  0  0
   -4.3544   -6.5008    3.6227 H   0  0  0  0  0  0  0  0  0  0  0  0
   -8.1293   -5.4877    5.4721 H   0  0  0  0  0  0  0  0  0  0  0  0
   -4.0435   -8.3004    5.2428 H   0  0  0  0  0  0  0  0  0  0  0  0
   -7.7854   -7.2986    7.1141 H   0  0  0  0  0  0  0  0  0  0  0  0
   -4.9167   -9.3546    7.0443 H   0  0  0  0  0  0  0  0  0  0  0  0
  1  2  2  0  0  0  0
  1  3  1  0  0  0  0
  1  4  1  0  0  0  0
  2  5  1  0  0  0  0
  2 26  1  0  0  0  0
  3  6  2  0  0  0  0
  3 27  1  0  0  0  0
  4  7  2  0  0  0  0
  4 28  1  0  0  0  0
  5  8  2  0  0  0  0
  5  9  1  0  0  0  0
  6  8  1  0  0  0  0
  6 29  1  0  0  0  0
  7 10  1  0  0  0  0
  7 30  1  0  0  0  0
  8 11  1  0  0  0  0
  9 12  1  0  0  0  0
 10 13  1  0  0  0  0
 10 14  2  0  0  0  0
 11 31  1  0  0  0  0
 12 32  1  0  0  0  0
 12 33  1  0  0  0  0
 12 34  1  0  0  0  0
 13 15  1  0  0  0  0
 13 35  1  0  0  0  0
 13 36  1  0  0  0  0
 15 16  1  0  0  0  0
 15 17  2  0  0  0  0
 16 18  2  0  0  0  0
 16 37  1  0  0  0  0
 18 19  1  0  0  0  0
 18 38  1  0  0  0  0
 19 20  2  0  0  0  0
 19 21  1  0  0  0  0
 20 22  1  0  0  0  0
 20 39  1  0  0  0  0
 21 23  2  0  0  0  0
 21 40  1  0  0  0  0
 22 24  2  0  0  0  0
 22 41  1  0  0  0  0
 23 24  1  0  0  0  0
 23 42  1  0  0  0  0
 24 25  1  0  0  0  0
 25 43  1  0  0  0  0
M  END
>  <Mol_ID>
4515

>  <Formula>
C20H18O5

>  <MolWeight>
338.35392

>  <Cat>
S9280

>  <Name>
Demethoxycurcumin

>  <Target>
Immunology & Inflammation related

>  <Form>
free base

>  <CAS>
22608-11-3

>  <URL>
https://www.selleckchem.com/products/demethoxycurcumin.html

$$$$
