S9285 Fargesin.cdx
 OpenBabel08302521213D

 49 53  0  0  0  0  0  0  0  0999 V2000
   -0.0327   -0.7639   -0.6548 C   0  0  1  0  0  0  0  0  0  0  0  0
    0.0168    0.7575   -0.7104 C   0  0  1  0  0  0  0  0  0  0  0  0
    1.3272   -1.1760   -0.0910 C   0  0  1  0  0  0  0  0  0  0  0  0
   -1.1169    1.2026    0.2124 C   0  0  2  0  0  0  0  0  0  0  0  0
   -2.0580    0.1200    0.1613 O   0  0  0  0  0  0  0  0  0  0  0  0
    1.8146   -0.0005    0.5896 O   0  0  0  0  0  0  0  0  0  0  0  0
   -1.7500    2.5168   -0.1831 C   0  0  0  0  0  0  0  0  0  0  0  0
    1.3536   -2.4000    0.7948 C   0  0  0  0  0  0  0  0  0  0  0  0
   -1.2568   -1.0668    0.2005 C   0  0  0  0  0  0  0  0  0  0  0  0
    1.3857    1.1251   -0.1828 C   0  0  0  0  0  0  0  0  0  0  0  0
   -3.4043    3.8065   -1.3319 C   0  0  0  0  0  0  0  0  0  0  0  0
   -2.8655    2.5713   -1.0374 C   0  0  0  0  0  0  0  0  0  0  0  0
    1.7682   -2.3166    2.1346 C   0  0  0  0  0  0  0  0  0  0  0  0
    1.7881   -3.4353    2.9791 C   0  0  0  0  0  0  0  0  0  0  0  0
   -2.8726    4.9694   -0.8275 C   0  0  0  0  0  0  0  0  0  0  0  0
   -4.4927    4.0343   -2.1161 O   0  0  0  0  0  0  0  0  0  0  0  0
   -3.5569    6.0732   -1.2295 O   0  0  0  0  0  0  0  0  0  0  0  0
   -4.6132    5.4674   -2.0029 C   0  0  0  0  0  0  0  0  0  0  0  0
    1.3948   -4.6808    2.4634 C   0  0  0  0  0  0  0  0  0  0  0  0
   -1.2097    3.7251    0.3223 C   0  0  0  0  0  0  0  0  0  0  0  0
    0.9695   -3.6457    0.2946 C   0  0  0  0  0  0  0  0  0  0  0  0
   -1.7718    4.9640   -0.0016 C   0  0  0  0  0  0  0  0  0  0  0  0
    0.9902   -4.7686    1.1232 C   0  0  0  0  0  0  0  0  0  0  0  0
    2.1675   -3.3572    4.2948 O   0  0  0  0  0  0  0  0  0  0  0  0
    1.3474   -5.8966    3.0976 O   0  0  0  0  0  0  0  0  0  0  0  0
    2.5784   -2.0946    4.8057 C   0  0  0  0  0  0  0  0  0  0  0  0
    1.7282   -5.9689    4.4628 C   0  0  0  0  0  0  0  0  0  0  0  0
   -0.1768   -1.1974   -1.6518 H   0  0  0  0  0  0  0  0  0  0  0  0
   -0.1264    1.1304   -1.7313 H   0  0  0  0  0  0  0  0  0  0  0  0
    2.0291   -1.3514   -0.9182 H   0  0  0  0  0  0  0  0  0  0  0  0
   -0.7852    1.2755    1.2576 H   0  0  0  0  0  0  0  0  0  0  0  0
   -1.0219   -1.2718    1.2499 H   0  0  0  0  0  0  0  0  0  0  0  0
   -1.8385   -1.9050   -0.1934 H   0  0  0  0  0  0  0  0  0  0  0  0
    2.1018    1.2607   -1.0007 H   0  0  0  0  0  0  0  0  0  0  0  0
    1.4030    2.0231    0.4403 H   0  0  0  0  0  0  0  0  0  0  0  0
   -3.3125    1.6680   -1.4410 H   0  0  0  0  0  0  0  0  0  0  0  0
    2.0747   -1.3431    2.5052 H   0  0  0  0  0  0  0  0  0  0  0  0
   -4.6047    5.9016   -3.0088 H   0  0  0  0  0  0  0  0  0  0  0  0
   -5.5729    5.7025   -1.5272 H   0  0  0  0  0  0  0  0  0  0  0  0
   -0.3524    3.7011    0.9924 H   0  0  0  0  0  0  0  0  0  0  0  0
    0.6501   -3.7585   -0.7396 H   0  0  0  0  0  0  0  0  0  0  0  0
   -1.3649    5.8871    0.3935 H   0  0  0  0  0  0  0  0  0  0  0  0
    0.6844   -5.7331    0.7223 H   0  0  0  0  0  0  0  0  0  0  0  0
    3.4797   -1.7388    4.2968 H   0  0  0  0  0  0  0  0  0  0  0  0
    1.7687   -1.3602    4.7459 H   0  0  0  0  0  0  0  0  0  0  0  0
    2.8249   -2.2266    5.8635 H   0  0  0  0  0  0  0  0  0  0  0  0
    2.7657   -5.6517    4.6085 H   0  0  0  0  0  0  0  0  0  0  0  0
    1.0313   -5.4095    5.0956 H   0  0  0  0  0  0  0  0  0  0  0  0
    1.6725   -7.0182    4.7673 H   0  0  0  0  0  0  0  0  0  0  0  0
  1  9  1  0  0  0  0
  1 28  1  6  0  0  0
  2  1  1  0  0  0  0
  2 10  1  0  0  0  0
  2 29  1  6  0  0  0
  3  1  1  0  0  0  0
  3  8  1  0  0  0  0
  3 30  1  6  0  0  0
  4  2  1  0  0  0  0
  4  7  1  0  0  0  0
  4  5  1  0  0  0  0
  4 31  1  1  0  0  0
  5  9  1  0  0  0  0
  6  3  1  0  0  0  0
  6 10  1  0  0  0  0
  9 32  1  0  0  0  0
  9 33  1  0  0  0  0
 10 34  1  0  0  0  0
 10 35  1  0  0  0  0
 11 12  2  0  0  0  0
 11 15  1  0  0  0  0
 12  7  1  0  0  0  0
 12 36  1  0  0  0  0
 13  8  2  0  0  0  0
 13 37  1  0  0  0  0
 14 13  1  0  0  0  0
 14 19  2  0  0  0  0
 15 22  2  0  0  0  0
 16 11  1  0  0  0  0
 17 15  1  0  0  0  0
 18 16  1  0  0  0  0
 18 17  1  0  0  0  0
 18 38  1  0  0  0  0
 18 39  1  0  0  0  0
 19 23  1  0  0  0  0
 20  7  2  0  0  0  0
 20 40  1  0  0  0  0
 21  8  1  0  0  0  0
 21 41  1  0  0  0  0
 22 20  1  0  0  0  0
 22 42  1  0  0  0  0
 23 21  2  0  0  0  0
 23 43  1  0  0  0  0
 24 14  1  0  0  0  0
 25 19  1  0  0  0  0
 26 24  1  0  0  0  0
 26 44  1  0  0  0  0
 26 45  1  0  0  0  0
 26 46  1  0  0  0  0
 27 25  1  0  0  0  0
 27 47  1  0  0  0  0
 27 48  1  0  0  0  0
 27 49  1  0  0  0  0
M  END
>  <Mol_ID>
4520

>  <Formula>
C21H22O6

>  <MolWeight>
370.39578

>  <Cat>
S9285

>  <Name>
Fargesin

>  <Target>
Adrenergic Receptor

>  <Form>
free base

>  <CAS>
31008-19-2

>  <URL>
https://www.selleckchem.com/products/fargesin.html

$$$$
