S9292 Dictamnine.cdx
 OpenBabel08302521213D

 24 26  0  0  0  0  0  0  0  0999 V2000
   -1.3279    0.8659   -0.0058 C   0  0  0  0  0  0  0  0  0  0  0  0
   -0.1023    1.5667    0.0007 C   0  0  0  0  0  0  0  0  0  0  0  0
   -1.2979   -0.5174   -0.0148 C   0  0  0  0  0  0  0  0  0  0  0  0
   -2.7078    1.2219   -0.0054 C   0  0  0  0  0  0  0  0  0  0  0  0
    1.0989    0.7777    0.0117 C   0  0  0  0  0  0  0  0  0  0  0  0
   -0.2720    2.9167   -0.0019 O   0  0  0  0  0  0  0  0  0  0  0  0
   -0.2150   -1.2961   -0.0228 N   0  0  0  0  0  0  0  0  0  0  0  0
   -2.5658   -1.0165   -0.0140 O   0  0  0  0  0  0  0  0  0  0  0  0
   -3.4142    0.0427   -0.0057 C   0  0  0  0  0  0  0  0  0  0  0  0
    0.9432   -0.6409   -0.0088 C   0  0  0  0  0  0  0  0  0  0  0  0
    2.4421    1.2537    0.0451 C   0  0  0  0  0  0  0  0  0  0  0  0
    0.8072    3.8249   -0.0274 C   0  0  0  0  0  0  0  0  0  0  0  0
    2.0604   -1.4638   -0.0123 C   0  0  0  0  0  0  0  0  0  0  0  0
    3.5505    0.4017    0.0411 C   0  0  0  0  0  0  0  0  0  0  0  0
    3.3583   -0.9652    0.0090 C   0  0  0  0  0  0  0  0  0  0  0  0
   -3.1236    2.2195   -0.0006 H   0  0  0  0  0  0  0  0  0  0  0  0
   -4.4669   -0.2028   -0.0015 H   0  0  0  0  0  0  0  0  0  0  0  0
    2.6799    2.3075    0.0809 H   0  0  0  0  0  0  0  0  0  0  0  0
    1.3769    3.7773    0.9051 H   0  0  0  0  0  0  0  0  0  0  0  0
    1.4297    3.6834   -0.9154 H   0  0  0  0  0  0  0  0  0  0  0  0
    0.3904    4.8351   -0.0937 H   0  0  0  0  0  0  0  0  0  0  0  0
    1.9160   -2.5434   -0.0316 H   0  0  0  0  0  0  0  0  0  0  0  0
    4.5570    0.8133    0.0643 H   0  0  0  0  0  0  0  0  0  0  0  0
    4.2065   -1.6440    0.0049 H   0  0  0  0  0  0  0  0  0  0  0  0
  1  2  2  0  0  0  0
  1  3  1  0  0  0  0
  1  4  1  0  0  0  0
  2  5  1  0  0  0  0
  2  6  1  0  0  0  0
  3  7  2  0  0  0  0
  3  8  1  0  0  0  0
  4  9  2  0  0  0  0
  4 16  1  0  0  0  0
  5 10  2  0  0  0  0
  5 11  1  0  0  0  0
  6 12  1  0  0  0  0
  7 10  1  0  0  0  0
  8  9  1  0  0  0  0
  9 17  1  0  0  0  0
 10 13  1  0  0  0  0
 11 14  2  0  0  0  0
 11 18  1  0  0  0  0
 12 19  1  0  0  0  0
 12 20  1  0  0  0  0
 12 21  1  0  0  0  0
 13 15  2  0  0  0  0
 13 22  1  0  0  0  0
 14 15  1  0  0  0  0
 14 23  1  0  0  0  0
 15 24  1  0  0  0  0
M  END
>  <Mol_ID>
4526

>  <Formula>
C12H9NO2

>  <MolWeight>
199.20536

>  <Cat>
S9292

>  <Name>
Dictamnine

>  <Target>
Bacterial

>  <Form>
free base

>  <CAS>
484-29-7

>  <URL>
https://www.selleckchem.com/products/dictamnine.html

$$$$
