S9301 Verbenalin.cdx
 OpenBabel08302521212D

 51 53  0  0  0  0  0  0  0  0999 V2000
    4.4487    3.5000    0.0000 C   0  0  0  0  0  0  0  0  0  0  0  0
    5.6612    4.2000    0.0000 C   0  0  1  0  0  0  0  0  0  0  0  0
    3.2363    8.4000    0.0000 C   0  0  1  0  0  0  0  0  0  0  0  0
    4.4487    6.3000    0.0000 C   0  0  2  0  0  0  0  0  0  0  0  0
    1.8576    8.6431    0.0000 C   0  0  1  0  0  0  0  0  0  0  0  0
    1.3787    9.9587    0.0000 C   0  0  2  0  0  0  0  0  0  0  0  0
    6.9926    3.7674    0.0000 C   0  0  0  0  0  0  0  0  0  0  0  0
    4.1362    9.4725    0.0000 O   0  0  0  0  0  0  0  0  0  0  0  0
    5.6612    5.6000    0.0000 C   0  0  3  0  0  0  0  0  0  0  0  0
    3.2363    4.2000    0.0000 C   0  0  0  0  0  0  0  0  0  0  0  0
    4.4487    7.7000    0.0000 O   0  0  0  0  0  0  0  0  0  0  0  0
    2.2786   11.0311    0.0000 C   0  0  3  0  0  0  0  0  0  0  0  0
    3.6574   10.7880    0.0000 C   0  0  3  0  0  0  0  0  0  0  0  0
    3.2363    5.6000    0.0000 O   0  0  0  0  0  0  0  0  0  0  0  0
    4.4487    2.1000    0.0000 C   0  0  0  0  0  0  0  0  0  0  0  0
    6.9926    6.0326    0.0000 C   0  0  3  0  0  0  0  0  0  0  0  0
    7.8155    4.9000    0.0000 C   0  0  0  0  0  0  0  0  0  0  0  0
    7.4253    2.4359    0.0000 O   0  0  0  0  0  0  0  0  0  0  0  0
    5.6612    1.4000    0.0000 O   0  0  0  0  0  0  0  0  0  0  0  0
    0.9577    7.5706    0.0000 O   0  0  0  0  0  0  0  0  0  0  0  0
    0.0000   10.2018    0.0000 O   0  0  0  0  0  0  0  0  0  0  0  0
    1.7998   12.3467    0.0000 O   0  0  0  0  0  0  0  0  0  0  0  0
    3.2363    1.4000    0.0000 O   0  0  0  0  0  0  0  0  0  0  0  0
    4.5573   11.8605    0.0000 C   0  0  0  0  0  0  0  0  0  0  0  0
    7.4253    7.3641    0.0000 C   0  0  0  0  0  0  0  0  0  0  0  0
    5.9360   11.6174    0.0000 O   0  0  0  0  0  0  0  0  0  0  0  0
    3.2363    0.0000    0.0000 C   0  0  0  0  0  0  0  0  0  0  0  0
    5.7730    3.1359    0.0000 H   0  0  0  0  0  0  0  0  0  0  0  0
    2.8703    7.3945    0.0000 H   0  0  0  0  0  0  0  0  0  0  0  0
    3.5220    6.8350    0.0000 H   0  0  0  0  0  0  0  0  0  0  0  0
    2.2236    7.6376    0.0000 H   0  0  0  0  0  0  0  0  0  0  0  0
    0.6909    9.1390    0.0000 H   0  0  0  0  0  0  0  0  0  0  0  0
    4.7346    5.0650    0.0000 H   0  0  0  0  0  0  0  0  0  0  0  0
    2.3426    3.6840    0.0000 H   0  0  0  0  0  0  0  0  0  0  0  0
    1.2249   11.2169    0.0000 H   0  0  0  0  0  0  0  0  0  0  0  0
    2.9696    9.9683    0.0000 H   0  0  0  0  0  0  0  0  0  0  0  0
    6.2360    6.7892    0.0000 H   0  0  0  0  0  0  0  0  0  0  0  0
    8.8855    4.9000    0.0000 H   0  0  0  0  0  0  0  0  0  0  0  0
    8.3013    5.8534    0.0000 H   0  0  0  0  0  0  0  0  0  0  0  0
    0.0024    7.7390    0.0000 H   0  0  0  0  0  0  0  0  0  0  0  0
   -0.3318   11.1133    0.0000 H   0  0  0  0  0  0  0  0  0  0  0  0
    2.4233   13.0897    0.0000 H   0  0  0  0  0  0  0  0  0  0  0  0
    4.1913   12.8660    0.0000 H   0  0  0  0  0  0  0  0  0  0  0  0
    5.2451   12.6802    0.0000 H   0  0  0  0  0  0  0  0  0  0  0  0
    8.4719    7.5865    0.0000 H   0  0  0  0  0  0  0  0  0  0  0  0
    6.7094    8.1593    0.0000 H   0  0  0  0  0  0  0  0  0  0  0  0
    7.7560    8.3817    0.0000 H   0  0  0  0  0  0  0  0  0  0  0  0
    6.2678   10.7059    0.0000 H   0  0  0  0  0  0  0  0  0  0  0  0
    2.3097   -0.5350    0.0000 H   0  0  0  0  0  0  0  0  0  0  0  0
    4.1629   -0.5350    0.0000 H   0  0  0  0  0  0  0  0  0  0  0  0
    3.2363   -1.0700    0.0000 H   0  0  0  0  0  0  0  0  0  0  0  0
  2  7  1  0  0  0  0
  2  1  1  0  0  0  0
  2 28  1  1  0  0  0
  3 11  1  0  0  0  0
  3 29  1  6  0  0  0
  4 14  1  0  0  0  0
  4 11  1  0  0  0  0
  4  9  1  0  0  0  0
  4 30  1  6  0  0  0
  5  3  1  0  0  0  0
  5 20  1  0  0  0  0
  5 31  1  1  0  0  0
  6  5  1  0  0  0  0
  6 21  1  0  0  0  0
  6 32  1  6  0  0  0
  8  3  1  0  0  0  0
  9  2  1  0  0  0  0
  9 16  1  0  0  0  0
  9 33  1  0  0  0  0
 10  1  2  0  0  0  0
 10 34  1  0  0  0  0
 12  6  1  0  0  0  0
 12 22  1  0  0  0  0
 12 13  1  0  0  0  0
 12 35  1  0  0  0  0
 13  8  1  0  0  0  0
 13 24  1  0  0  0  0
 13 36  1  0  0  0  0
 14 10  1  0  0  0  0
 15  1  1  0  0  0  0
 16 25  1  0  0  0  0
 16 37  1  0  0  0  0
 17  7  1  0  0  0  0
 17 16  1  0  0  0  0
 17 38  1  0  0  0  0
 17 39  1  0  0  0  0
 18  7  2  0  0  0  0
 19 15  2  0  0  0  0
 20 40  1  0  0  0  0
 21 41  1  0  0  0  0
 22 42  1  0  0  0  0
 23 15  1  0  0  0  0
 24 43  1  0  0  0  0
 24 44  1  0  0  0  0
 25 45  1  0  0  0  0
 25 46  1  0  0  0  0
 25 47  1  0  0  0  0
 26 24  1  0  0  0  0
 26 48  1  0  0  0  0
 27 23  1  0  0  0  0
 27 49  1  0  0  0  0
 27 50  1  0  0  0  0
 27 51  1  0  0  0  0
M  END
>  <Mol_ID>
4533

>  <Formula>
C17H24O10

>  <MolWeight>
388.36646

>  <Cat>
S9301

>  <Name>
Verbenalin

>  <Synonyms>
Verbenalol ¦Â-D-glucopyranoside, Verbenalol glucoside, Cornin

>  <Target>
Others

>  <Form>
free base

>  <CAS>
548-37-8

>  <URL>
https://www.selleckchem.com/products/verbenalin.html

$$$$
