S9313 Atractylenolide III.cdx
 OpenBabel08302521213D

 38 40  0  0  0  0  0  0  0  0999 V2000
    1.8675    0.6717    0.9122 C   0  0  2  0  0  0  0  0  0  0  0  0
    1.9371    1.6857   -0.1629 C   0  0  0  0  0  0  0  0  0  0  0  0
    0.8727   -0.4784    0.6937 C   0  0  0  0  0  0  0  0  0  0  0  0
    1.5408    1.4052    2.0855 O   0  0  0  0  0  0  0  0  0  0  0  0
    3.1588    0.0796    1.0826 O   0  0  0  0  0  0  0  0  0  0  0  0
    0.9128    1.5734   -1.2866 C   0  0  0  0  0  0  0  0  0  0  0  0
    2.2359    2.8530    0.4281 C   0  0  0  0  0  0  0  0  0  0  0  0
   -0.5114   -0.0672    0.1064 C   0  0  2  0  0  0  0  0  0  0  0  0
    1.8010    2.7138    1.8287 C   0  0  0  0  0  0  0  0  0  0  0  0
   -0.4355    1.3507   -0.5471 C   0  0  2  0  0  0  0  0  0  0  0  0
    3.0314    4.0097   -0.0206 C   0  0  0  0  0  0  0  0  0  0  0  0
   -1.5931   -0.0163    1.2204 C   0  0  0  0  0  0  0  0  0  0  0  0
   -0.9023   -1.1659   -0.9174 C   0  0  0  0  0  0  0  0  0  0  0  0
    1.6051    3.6404    2.5954 O   0  0  0  0  0  0  0  0  0  0  0  0
   -1.7702    1.7379   -1.1388 C   0  0  0  0  0  0  0  0  0  0  0  0
   -2.9456    0.5543    0.7492 C   0  0  0  0  0  0  0  0  0  0  0  0
   -2.8248    1.8571   -0.0525 C   0  0  0  0  0  0  0  0  0  0  0  0
   -2.0327    1.9790   -2.4296 C   0  0  0  0  0  0  0  0  0  0  0  0
    1.3586   -1.1941    0.0142 H   0  0  0  0  0  0  0  0  0  0  0  0
    0.7355   -1.0320    1.6323 H   0  0  0  0  0  0  0  0  0  0  0  0
    3.8290    0.7142    0.7727 H   0  0  0  0  0  0  0  0  0  0  0  0
    0.8832    2.4831   -1.8952 H   0  0  0  0  0  0  0  0  0  0  0  0
    1.1606    0.7377   -1.9519 H   0  0  0  0  0  0  0  0  0  0  0  0
   -0.3847    2.0668    0.2885 H   0  0  0  0  0  0  0  0  0  0  0  0
    2.7705    4.9301    0.5094 H   0  0  0  0  0  0  0  0  0  0  0  0
    4.0769    3.7836    0.2372 H   0  0  0  0  0  0  0  0  0  0  0  0
    2.9849    4.1835   -1.0970 H   0  0  0  0  0  0  0  0  0  0  0  0
   -1.2288    0.6039    2.0493 H   0  0  0  0  0  0  0  0  0  0  0  0
   -1.7565   -1.0191    1.6360 H   0  0  0  0  0  0  0  0  0  0  0  0
   -1.9256   -1.0621   -1.2861 H   0  0  0  0  0  0  0  0  0  0  0  0
   -0.2378   -1.1568   -1.7881 H   0  0  0  0  0  0  0  0  0  0  0  0
   -0.8262   -2.1594   -0.4589 H   0  0  0  0  0  0  0  0  0  0  0  0
   -3.4682   -0.1931    0.1419 H   0  0  0  0  0  0  0  0  0  0  0  0
   -3.5788    0.7317    1.6275 H   0  0  0  0  0  0  0  0  0  0  0  0
   -3.8022    2.1366   -0.4579 H   0  0  0  0  0  0  0  0  0  0  0  0
   -2.5321    2.6685    0.6292 H   0  0  0  0  0  0  0  0  0  0  0  0
   -1.2782    1.8878   -3.2034 H   0  0  0  0  0  0  0  0  0  0  0  0
   -3.0302    2.2715   -2.7496 H   0  0  0  0  0  0  0  0  0  0  0  0
  1  2  1  0  0  0  0
  1  3  1  0  0  0  0
  1  4  1  0  0  0  0
  1  5  1  1  0  0  0
  2  6  1  0  0  0  0
  2  7  2  0  0  0  0
  3  8  1  0  0  0  0
  3 19  1  0  0  0  0
  3 20  1  0  0  0  0
  4  9  1  0  0  0  0
  5 21  1  0  0  0  0
  6 22  1  0  0  0  0
  6 23  1  0  0  0  0
  7 11  1  0  0  0  0
  7  9  1  0  0  0  0
  8 12  1  0  0  0  0
  8 13  1  6  0  0  0
  8 10  1  0  0  0  0
  9 14  2  0  0  0  0
 10  6  1  0  0  0  0
 10 15  1  0  0  0  0
 10 24  1  1  0  0  0
 11 25  1  0  0  0  0
 11 26  1  0  0  0  0
 11 27  1  0  0  0  0
 12 16  1  0  0  0  0
 12 28  1  0  0  0  0
 12 29  1  0  0  0  0
 13 30  1  0  0  0  0
 13 31  1  0  0  0  0
 13 32  1  0  0  0  0
 15 17  1  0  0  0  0
 15 18  2  0  0  0  0
 16 17  1  0  0  0  0
 16 33  1  0  0  0  0
 16 34  1  0  0  0  0
 17 35  1  0  0  0  0
 17 36  1  0  0  0  0
 18 37  1  0  0  0  0
 18 38  1  0  0  0  0
M  END
>  <Mol_ID>
4541

>  <Formula>
C15H20O3

>  <MolWeight>
248.3175

>  <Cat>
S9313

>  <Name>
Atractylenolide III

>  <Target>
Immunology & Inflammation related

>  <Form>
free base

>  <CAS>
73030-71-4

>  <URL>
https://www.selleckchem.com/products/atractylenolide-iii.html

$$$$
