S9336 Ethyl Coumarin-3-carboxylate.cdx
 OpenBabel08302520433D

 26 27  0  0  0  0  0  0  0  0999 V2000
    0.5670   -0.7264    0.2041 C   0  0  0  0  0  0  0  0  0  0  0  0
    0.3192    0.6284    0.0212 C   0  0  0  0  0  0  0  0  0  0  0  0
   -0.5645   -1.6424    0.2456 C   0  0  0  0  0  0  0  0  0  0  0  0
    1.8929   -1.1567    0.2928 C   0  0  0  0  0  0  0  0  0  0  0  0
   -0.9945    1.1041   -0.0962 O   0  0  0  0  0  0  0  0  0  0  0  0
    1.3476    1.5634   -0.0746 C   0  0  0  0  0  0  0  0  0  0  0  0
   -1.8234   -1.1976    0.0660 C   0  0  0  0  0  0  0  0  0  0  0  0
    2.9389   -0.2315    0.1825 C   0  0  0  0  0  0  0  0  0  0  0  0
   -2.0961    0.2510   -0.0916 C   0  0  0  0  0  0  0  0  0  0  0  0
    2.6670    1.1264   -0.0008 C   0  0  0  0  0  0  0  0  0  0  0  0
   -2.8953   -2.2304    0.0414 C   0  0  0  0  0  0  0  0  0  0  0  0
   -3.2225    0.7258   -0.1903 O   0  0  0  0  0  0  0  0  0  0  0  0
   -4.0676   -1.7144   -0.3977 O   0  0  0  0  0  0  0  0  0  0  0  0
   -2.7187   -3.3987    0.3561 O   0  0  0  0  0  0  0  0  0  0  0  0
   -5.2212   -2.5681   -0.3638 C   0  0  0  0  0  0  0  0  0  0  0  0
   -5.4210   -3.2417   -1.7075 C   0  0  0  0  0  0  0  0  0  0  0  0
   -0.3466   -2.6978    0.3901 H   0  0  0  0  0  0  0  0  0  0  0  0
    2.1310   -2.2082    0.4290 H   0  0  0  0  0  0  0  0  0  0  0  0
    1.1216    2.6159   -0.2192 H   0  0  0  0  0  0  0  0  0  0  0  0
    3.9719   -0.5716    0.2303 H   0  0  0  0  0  0  0  0  0  0  0  0
    3.4817    1.8399   -0.0933 H   0  0  0  0  0  0  0  0  0  0  0  0
   -5.1506   -3.3030    0.4440 H   0  0  0  0  0  0  0  0  0  0  0  0
   -6.0843   -1.9300   -0.1437 H   0  0  0  0  0  0  0  0  0  0  0  0
   -4.5107   -3.7521   -2.0359 H   0  0  0  0  0  0  0  0  0  0  0  0
   -6.2380   -3.9678   -1.6565 H   0  0  0  0  0  0  0  0  0  0  0  0
   -5.6679   -2.4998   -2.4743 H   0  0  0  0  0  0  0  0  0  0  0  0
  1  2  2  0  0  0  0
  1  3  1  0  0  0  0
  1  4  1  0  0  0  0
  2  5  1  0  0  0  0
  2  6  1  0  0  0  0
  3  7  2  0  0  0  0
  3 17  1  0  0  0  0
  4  8  2  0  0  0  0
  4 18  1  0  0  0  0
  5  9  1  0  0  0  0
  6 10  2  0  0  0  0
  6 19  1  0  0  0  0
  7 11  1  0  0  0  0
  7  9  1  0  0  0  0
  8 10  1  0  0  0  0
  8 20  1  0  0  0  0
  9 12  2  0  0  0  0
 10 21  1  0  0  0  0
 11 13  1  0  0  0  0
 11 14  2  0  0  0  0
 13 15  1  0  0  0  0
 15 16  1  0  0  0  0
 15 22  1  0  0  0  0
 15 23  1  0  0  0  0
 16 24  1  0  0  0  0
 16 25  1  0  0  0  0
 16 26  1  0  0  0  0
M  END
>  <Mol_ID>
4224

>  <Formula>
C12H10O4

>  <MolWeight>
218.2054

>  <Cat>
S9336

>  <Name>
Ethyl Coumarin-3-carboxylate

>  <Target>
Others

>  <Form>
free base

>  <CAS>
1846-76-0

>  <URL>
https://www.selleckchem.com/products/ethyl-coumarin-3-carboxylate.html

$$$$
