S9350 Ethyl 4-Methoxycinnamate.cdx
 OpenBabel08302520433D

 29 29  0  0  0  0  0  0  0  0999 V2000
    0.6885   -0.0502   -0.9757 C   0  0  0  0  0  0  0  0  0  0  0  0
   -0.1055   -1.2784   -0.7401 C   0  0  0  0  0  0  0  0  0  0  0  0
   -1.1387   -1.3381    0.1139 C   0  0  0  0  0  0  0  0  0  0  0  0
   -1.8738   -2.5733    0.3784 C   0  0  0  0  0  0  0  0  0  0  0  0
   -1.4492   -3.4199    1.4073 C   0  0  0  0  0  0  0  0  0  0  0  0
   -2.1647   -4.5828    1.7130 C   0  0  0  0  0  0  0  0  0  0  0  0
   -3.3091   -4.9129    0.9877 C   0  0  0  0  0  0  0  0  0  0  0  0
   -3.7294   -4.0694   -0.0448 C   0  0  0  0  0  0  0  0  0  0  0  0
   -3.0161   -2.9039   -0.3511 C   0  0  0  0  0  0  0  0  0  0  0  0
    1.5810    0.0017   -1.8062 O   0  0  0  0  0  0  0  0  0  0  0  0
    0.2947    0.9536   -0.1546 O   0  0  0  0  0  0  0  0  0  0  0  0
   -4.0952   -6.0146    1.1868 O   0  0  0  0  0  0  0  0  0  0  0  0
   -3.7111   -6.8981    2.2336 C   0  0  0  0  0  0  0  0  0  0  0  0
    0.9611    2.2135   -0.3177 C   0  0  0  0  0  0  0  0  0  0  0  0
    2.2338    2.2592    0.5065 C   0  0  0  0  0  0  0  0  0  0  0  0
    0.2192   -2.1425   -1.3103 H   0  0  0  0  0  0  0  0  0  0  0  0
   -1.4672   -0.4747    0.6849 H   0  0  0  0  0  0  0  0  0  0  0  0
   -0.5634   -3.1740    1.9888 H   0  0  0  0  0  0  0  0  0  0  0  0
   -1.8025   -5.2024    2.5264 H   0  0  0  0  0  0  0  0  0  0  0  0
   -4.6241   -4.3179   -0.6102 H   0  0  0  0  0  0  0  0  0  0  0  0
   -3.3713   -2.2598   -1.1522 H   0  0  0  0  0  0  0  0  0  0  0  0
   -2.7043   -7.2968    2.0700 H   0  0  0  0  0  0  0  0  0  0  0  0
   -3.7876   -6.4062    3.2093 H   0  0  0  0  0  0  0  0  0  0  0  0
   -4.4052   -7.7441    2.2305 H   0  0  0  0  0  0  0  0  0  0  0  0
    1.1574    2.4243   -1.3749 H   0  0  0  0  0  0  0  0  0  0  0  0
    0.2688    2.9822    0.0417 H   0  0  0  0  0  0  0  0  0  0  0  0
    2.9593    1.5208    0.1518 H   0  0  0  0  0  0  0  0  0  0  0  0
    2.6921    3.2512    0.4524 H   0  0  0  0  0  0  0  0  0  0  0  0
    2.0248    2.0248    1.5555 H   0  0  0  0  0  0  0  0  0  0  0  0
  1  2  1  0  0  0  0
  1 10  2  0  0  0  0
  1 11  1  0  0  0  0
  2  3  2  0  0  0  0
  2 16  1  0  0  0  0
  3  4  1  0  0  0  0
  3 17  1  0  0  0  0
  4  5  2  0  0  0  0
  4  9  1  0  0  0  0
  5  6  1  0  0  0  0
  5 18  1  0  0  0  0
  6  7  2  0  0  0  0
  6 19  1  0  0  0  0
  7  8  1  0  0  0  0
  7 12  1  0  0  0  0
  8  9  2  0  0  0  0
  8 20  1  0  0  0  0
  9 21  1  0  0  0  0
 11 14  1  0  0  0  0
 12 13  1  0  0  0  0
 13 22  1  0  0  0  0
 13 23  1  0  0  0  0
 13 24  1  0  0  0  0
 14 15  1  0  0  0  0
 14 25  1  0  0  0  0
 14 26  1  0  0  0  0
 15 27  1  0  0  0  0
 15 28  1  0  0  0  0
 15 29  1  0  0  0  0
M  END
>  <Mol_ID>
4230

>  <Formula>
C12H14O3

>  <MolWeight>
206.23776

>  <Cat>
S9350

>  <Name>
Ethyl 4-Methoxycinnamate

>  <Synonyms>
Ethyl p-methoxycinnamate, 4-Methoxycinnamic Acid Ethyl Ester, Ethyl methoxycinnamate, Ethyl para-methoxycinnamate

>  <Target>
Fungal

>  <Form>
free base

>  <CAS>
24393-56-4

>  <URL>
https://www.selleckchem.com/products/ethyl-4-methoxycinnamate.html

$$$$
