S9365 Disodium uridine-5'-monophosphate.cdx
 OpenBabel08302521383D

 32 33  0  0  0  0  0  0  0  0999 V2000
    0.4834    1.3350    0.4256 C   0  0  2  0  0  0  0  0  0  0  0  0
    0.8279    2.7285    0.1469 N   0  0  0  0  0  0  0  0  0  0  0  0
    1.6624    0.5046    0.4475 O   0  0  0  0  0  0  0  0  0  0  0  0
   -0.5302    0.6880   -0.5334 C   0  0  1  0  0  0  0  0  0  0  0  0
    0.0102    3.7091    0.6807 C   0  0  0  0  0  0  0  0  0  0  0  0
    1.9810    3.0476   -0.5507 C   0  0  0  0  0  0  0  0  0  0  0  0
    1.3703   -0.7279   -0.2622 C   0  0  1  0  0  0  0  0  0  0  0  0
   -0.1566   -0.7804   -0.3555 C   0  0  1  0  0  0  0  0  0  0  0  0
   -1.8979    0.8945   -0.1617 O   0  0  0  0  0  0  0  0  0  0  0  0
    0.4184    5.0023    0.4765 N   0  0  0  0  0  0  0  0  0  0  0  0
   -0.9925    3.5071    1.3645 O   0  0  0  0  0  0  0  0  0  0  0  0
    2.4325    4.3037   -0.6192 C   0  0  0  0  0  0  0  0  0  0  0  0
    1.9897   -0.7611   -1.6561 C   0  0  0  0  0  0  0  0  0  0  0  0
   -0.7553   -1.2199    0.8931 O   0  0  0  0  0  0  0  0  0  0  0  0
    1.6682    5.3589    0.0582 C   0  0  0  0  0  0  0  0  0  0  0  0
    3.4203   -0.8146   -1.5939 O   0  0  0  0  0  0  0  0  0  0  0  0
    2.1310    6.4776    0.2548 O   0  0  0  0  0  0  0  0  0  0  0  0
    4.1694   -0.9676   -3.1457 P   0  0  0  0  0  0  0  0  0  0  0  0
    3.4402   -2.3262   -3.2500 O   0  0  0  0  0  0  0  0  0  0  0  0
    3.5013    0.3843   -3.4890 O   0  5  0  0  0  0  0  0  0  0  0  0
    4.9186   -1.1206   -4.6976 O   0  5  0  0  0  0  0  0  0  0  0  0
    0.0790    1.3062    1.4423 H   0  0  0  0  0  0  0  0  0  0  0  0
   -0.3865    1.0251   -1.5617 H   0  0  0  0  0  0  0  0  0  0  0  0
    2.5405    2.2319   -1.0140 H   0  0  0  0  0  0  0  0  0  0  0  0
    1.7814   -1.5422    0.3450 H   0  0  0  0  0  0  0  0  0  0  0  0
   -0.5495   -1.4280   -1.1442 H   0  0  0  0  0  0  0  0  0  0  0  0
   -2.0504    0.2581    0.5708 H   0  0  0  0  0  0  0  0  0  0  0  0
   -0.1107    5.7017    0.9669 H   0  0  0  0  0  0  0  0  0  0  0  0
    3.3573    4.5662   -1.1117 H   0  0  0  0  0  0  0  0  0  0  0  0
    1.6033   -1.6512   -2.1633 H   0  0  0  0  0  0  0  0  0  0  0  0
    1.6703    0.1209   -2.2165 H   0  0  0  0  0  0  0  0  0  0  0  0
   -0.0484   -1.6587    1.4013 H   0  0  0  0  0  0  0  0  0  0  0  0
  1  3  1  0  0  0  0
  1  4  1  0  0  0  0
  1 22  1  1  0  0  0
  1  2  1  0  0  0  0
  2  5  1  0  0  0  0
  2  6  1  0  0  0  0
  3  7  1  0  0  0  0
  4  8  1  0  0  0  0
  4  9  1  0  0  0  0
  4 23  1  6  0  0  0
  5 10  1  0  0  0  0
  5 11  2  0  0  0  0
  6 12  2  0  0  0  0
  6 24  1  0  0  0  0
  7  8  1  0  0  0  0
  7 25  1  1  0  0  0
  7 13  1  0  0  0  0
  8 14  1  0  0  0  0
  8 26  1  6  0  0  0
  9 27  1  0  0  0  0
 10 15  1  0  0  0  0
 10 28  1  0  0  0  0
 12 15  1  0  0  0  0
 12 29  1  0  0  0  0
 13 16  1  0  0  0  0
 13 30  1  0  0  0  0
 13 31  1  0  0  0  0
 14 32  1  0  0  0  0
 15 17  2  0  0  0  0
 16 18  1  0  0  0  0
 18 19  2  0  0  0  0
 18 20  1  0  0  0  0
 18 21  1  0  0  0  0
M  CHG  2  20  -1  21  -1
M  END
>  <Mol_ID>
7865

>  <Formula>
C9H11N2Na2O9P

>  <MolWeight>
368.144941

>  <Cat>
S9365

>  <Name>
Disodium uridine-5'-monophosphate

>  <Target>
Others

>  <Form>
free base

>  <CAS>
3387-36-8

>  <URL>
https://www.selleckchem.com/products/disodium-uridine-5-monophosphate.html

$$$$
