S9363 Coumarin 151.cdx
 OpenBabel08302521213D

 22 23  0  0  0  0  0  0  0  0999 V2000
   -0.0712    0.7471    0.0225 C   0  0  0  0  0  0  0  0  0  0  0  0
   -0.0484   -0.6515    0.0542 C   0  0  0  0  0  0  0  0  0  0  0  0
    1.2120    1.4690    0.0405 C   0  0  0  0  0  0  0  0  0  0  0  0
   -1.3331    1.3456   -0.0519 C   0  0  0  0  0  0  0  0  0  0  0  0
    1.1623   -1.3737    0.0745 O   0  0  0  0  0  0  0  0  0  0  0  0
   -1.2117   -1.4305    0.0384 C   0  0  0  0  0  0  0  0  0  0  0  0
    2.3424    0.7394    0.0397 C   0  0  0  0  0  0  0  0  0  0  0  0
    1.3405    2.9643    0.0634 C   0  0  0  0  0  0  0  0  0  0  0  0
   -2.5055    0.5728   -0.0748 C   0  0  0  0  0  0  0  0  0  0  0  0
    2.3796   -0.7260    0.0395 C   0  0  0  0  0  0  0  0  0  0  0  0
   -2.4597   -0.8172    0.0193 C   0  0  0  0  0  0  0  0  0  0  0  0
    0.1795    3.6560    0.1324 F   0  0  0  0  0  0  0  0  0  0  0  0
    2.0827    3.3686    1.1295 F   0  0  0  0  0  0  0  0  0  0  0  0
    1.9895    3.4128   -1.0435 F   0  0  0  0  0  0  0  0  0  0  0  0
    3.4484   -1.3251    0.0186 O   0  0  0  0  0  0  0  0  0  0  0  0
   -3.6227   -1.5720   -0.1512 N   0  0  0  0  0  0  0  0  0  0  0  0
   -1.4687    2.4199   -0.1194 H   0  0  0  0  0  0  0  0  0  0  0  0
   -1.1292   -2.5138    0.0316 H   0  0  0  0  0  0  0  0  0  0  0  0
    3.3219    1.2101    0.0399 H   0  0  0  0  0  0  0  0  0  0  0  0
   -3.4631    1.0799   -0.1726 H   0  0  0  0  0  0  0  0  0  0  0  0
   -3.5688   -2.5139    0.2248 H   0  0  0  0  0  0  0  0  0  0  0  0
   -4.4756   -1.0956    0.1257 H   0  0  0  0  0  0  0  0  0  0  0  0
  1  2  2  0  0  0  0
  1  3  1  0  0  0  0
  1  4  1  0  0  0  0
  2  5  1  0  0  0  0
  2  6  1  0  0  0  0
  3  7  2  0  0  0  0
  3  8  1  0  0  0  0
  4  9  2  0  0  0  0
  4 17  1  0  0  0  0
  5 10  1  0  0  0  0
  6 11  2  0  0  0  0
  6 18  1  0  0  0  0
  7 10  1  0  0  0  0
  7 19  1  0  0  0  0
  8 12  1  0  0  0  0
  8 13  1  0  0  0  0
  8 14  1  0  0  0  0
  9 11  1  0  0  0  0
  9 20  1  0  0  0  0
 10 15  2  0  0  0  0
 11 16  1  0  0  0  0
 16 21  1  0  0  0  0
 16 22  1  0  0  0  0
M  END
>  <Mol_ID>
4591

>  <Formula>
C10H6F3NO2

>  <MolWeight>
229.1553496

>  <Cat>
S9363

>  <Name>
Coumarin 151

>  <Synonyms>
7-Amino-4-(trifluoromethyl)coumarin

>  <Target>
Others

>  <Form>
free base

>  <CAS>
53518-15-3

>  <URL>
https://www.selleckchem.com/products/coumarin-151.html

$$$$
