S9374 2',5'-Dihydroxyacetophenone.cdx
 OpenBabel08302520433D

 19 19  0  0  0  0  0  0  0  0999 V2000
   -0.6435   -1.2508    0.0069 C   0  0  0  0  0  0  0  0  0  0  0  0
   -1.3675   -0.0426    0.0056 C   0  0  0  0  0  0  0  0  0  0  0  0
    0.7577   -1.1890    0.0045 C   0  0  0  0  0  0  0  0  0  0  0  0
   -1.3886   -2.5498    0.0132 C   0  0  0  0  0  0  0  0  0  0  0  0
   -0.7139    1.1897    0.0048 C   0  0  0  0  0  0  0  0  0  0  0  0
   -2.7372    0.0178    0.0019 O   0  0  0  0  0  0  0  0  0  0  0  0
    1.3995    0.0498    0.0024 C   0  0  0  0  0  0  0  0  0  0  0  0
   -0.6730   -3.8781    0.0158 C   0  0  0  0  0  0  0  0  0  0  0  0
   -2.6218   -2.5196    0.0170 O   0  0  0  0  0  0  0  0  0  0  0  0
    0.6772    1.2354    0.0045 C   0  0  0  0  0  0  0  0  0  0  0  0
    2.7606    0.1422   -0.0013 O   0  0  0  0  0  0  0  0  0  0  0  0
    1.3692   -2.0807    0.0042 H   0  0  0  0  0  0  0  0  0  0  0  0
   -1.2908    2.1107    0.0049 H   0  0  0  0  0  0  0  0  0  0  0  0
   -3.0823   -0.9040   -0.0017 H   0  0  0  0  0  0  0  0  0  0  0  0
   -0.9538   -4.4239    0.9211 H   0  0  0  0  0  0  0  0  0  0  0  0
   -0.9864   -4.4444   -0.8661 H   0  0  0  0  0  0  0  0  0  0  0  0
    0.4114   -3.8110   -0.0066 H   0  0  0  0  0  0  0  0  0  0  0  0
    1.1934    2.1914    0.0043 H   0  0  0  0  0  0  0  0  0  0  0  0
    3.1486   -0.7480   -0.0122 H   0  0  0  0  0  0  0  0  0  0  0  0
  1  2  2  0  0  0  0
  1  3  1  0  0  0  0
  1  4  1  0  0  0  0
  2  5  1  0  0  0  0
  2  6  1  0  0  0  0
  3  7  2  0  0  0  0
  3 12  1  0  0  0  0
  4  8  1  0  0  0  0
  4  9  2  0  0  0  0
  5 10  2  0  0  0  0
  5 13  1  0  0  0  0
  6 14  1  0  0  0  0
  7 11  1  0  0  0  0
  7 10  1  0  0  0  0
  8 15  1  0  0  0  0
  8 16  1  0  0  0  0
  8 17  1  0  0  0  0
 10 18  1  0  0  0  0
 11 19  1  0  0  0  0
M  END
>  <Mol_ID>
4238

>  <Formula>
C8H8O3

>  <MolWeight>
152.14732

>  <Cat>
S9374

>  <Name>
2',5'-Dihydroxyacetophenone

>  <Synonyms>
DHAP, 2-Acetylhydroquinone, Quinacetophenone

>  <Target>
ERK,Interleukins,NF-¦ÊB,NOS,TNF-alpha

>  <Form>
free base

>  <CAS>
490-78-8

>  <URL>
https://www.selleckchem.com/products/2-5-dihydroxyacetophenone.html

$$$$
