S9379 Dihydrocoumarin.cdx
 OpenBabel08302521213D

 19 20  0  0  0  0  0  0  0  0999 V2000
    0.3324    0.5435    0.0553 C   0  0  0  0  0  0  0  0  0  0  0  0
    0.6111   -0.8215    0.1284 C   0  0  0  0  0  0  0  0  0  0  0  0
   -0.9906    1.0170    0.1259 O   0  0  0  0  0  0  0  0  0  0  0  0
    1.3440    1.4895   -0.0739 C   0  0  0  0  0  0  0  0  0  0  0  0
   -0.5300   -1.7781    0.2630 C   0  0  0  0  0  0  0  0  0  0  0  0
    1.9415   -1.2428    0.0883 C   0  0  0  0  0  0  0  0  0  0  0  0
   -2.0591    0.1481   -0.0664 C   0  0  0  0  0  0  0  0  0  0  0  0
    2.6676    1.0599   -0.1406 C   0  0  0  0  0  0  0  0  0  0  0  0
   -1.6982   -1.2338   -0.5354 C   0  0  0  0  0  0  0  0  0  0  0  0
    2.9656   -0.3026   -0.0558 C   0  0  0  0  0  0  0  0  0  0  0  0
   -3.2197    0.5240    0.0564 O   0  0  0  0  0  0  0  0  0  0  0  0
    1.1039    2.5471   -0.1292 H   0  0  0  0  0  0  0  0  0  0  0  0
   -0.7930   -1.8775    1.3230 H   0  0  0  0  0  0  0  0  0  0  0  0
   -0.2568   -2.7693   -0.1155 H   0  0  0  0  0  0  0  0  0  0  0  0
    2.1908   -2.2992    0.1552 H   0  0  0  0  0  0  0  0  0  0  0  0
    3.4684    1.7858   -0.2564 H   0  0  0  0  0  0  0  0  0  0  0  0
   -2.5671   -1.8877   -0.4074 H   0  0  0  0  0  0  0  0  0  0  0  0
   -1.4691   -1.1806   -1.6066 H   0  0  0  0  0  0  0  0  0  0  0  0
    4.0007   -0.6328   -0.1033 H   0  0  0  0  0  0  0  0  0  0  0  0
  1  2  2  0  0  0  0
  1  3  1  0  0  0  0
  1  4  1  0  0  0  0
  2  5  1  0  0  0  0
  2  6  1  0  0  0  0
  3  7  1  0  0  0  0
  4  8  2  0  0  0  0
  4 12  1  0  0  0  0
  5  9  1  0  0  0  0
  5 13  1  0  0  0  0
  5 14  1  0  0  0  0
  6 10  2  0  0  0  0
  6 15  1  0  0  0  0
  7 11  2  0  0  0  0
  7  9  1  0  0  0  0
  8 10  1  0  0  0  0
  8 16  1  0  0  0  0
  9 17  1  0  0  0  0
  9 18  1  0  0  0  0
 10 19  1  0  0  0  0
M  END
>  <Mol_ID>
4587

>  <Formula>
C9H8O2

>  <MolWeight>
148.15862

>  <Cat>
S9379

>  <Name>
Dihydrocoumarin

>  <Target>
Others

>  <Form>
free base

>  <CAS>
119-84-6

>  <URL>
https://www.selleckchem.com/products/dihydrocoumarin.html

$$$$
