S9382 Thymine.cdx
 OpenBabel08302521213D

 15 15  0  0  0  0  0  0  0  0999 V2000
    0.8026   -0.7515    0.0054 C   0  0  0  0  0  0  0  0  0  0  0  0
    1.1963    0.6838    0.0105 C   0  0  0  0  0  0  0  0  0  0  0  0
   -0.5407   -1.0073   -0.0070 N   0  0  0  0  0  0  0  0  0  0  0  0
    1.6367   -1.6503    0.0128 O   0  0  0  0  0  0  0  0  0  0  0  0
    0.2199    1.5995   -0.0110 C   0  0  0  0  0  0  0  0  0  0  0  0
    2.6539    1.0028    0.0426 C   0  0  0  0  0  0  0  0  0  0  0  0
   -1.5257   -0.0627   -0.0218 C   0  0  0  0  0  0  0  0  0  0  0  0
   -1.0970    1.2360   -0.0285 N   0  0  0  0  0  0  0  0  0  0  0  0
   -2.7170   -0.3529   -0.0284 O   0  0  0  0  0  0  0  0  0  0  0  0
   -0.8288   -1.9726   -0.0067 H   0  0  0  0  0  0  0  0  0  0  0  0
    0.4219    2.6663   -0.0114 H   0  0  0  0  0  0  0  0  0  0  0  0
    3.1173    0.5880    0.9437 H   0  0  0  0  0  0  0  0  0  0  0  0
    3.1598    0.5855   -0.8339 H   0  0  0  0  0  0  0  0  0  0  0  0
    2.8312    2.0836    0.0460 H   0  0  0  0  0  0  0  0  0  0  0  0
   -1.8271    1.9392   -0.0406 H   0  0  0  0  0  0  0  0  0  0  0  0
  1  2  1  0  0  0  0
  1  3  1  0  0  0  0
  1  4  2  0  0  0  0
  2  5  2  0  0  0  0
  2  6  1  0  0  0  0
  3  7  1  0  0  0  0
  3 10  1  0  0  0  0
  5  8  1  0  0  0  0
  5 11  1  0  0  0  0
  6 12  1  0  0  0  0
  6 13  1  0  0  0  0
  6 14  1  0  0  0  0
  7  9  2  0  0  0  0
  7  8  1  0  0  0  0
  8 15  1  0  0  0  0
M  END
>  <Mol_ID>
4594

>  <Formula>
C5H6N2O2

>  <MolWeight>
126.11334

>  <Cat>
S9382

>  <Name>
Thymine

>  <Synonyms>
5-methyluracil

>  <Target>
DNA/RNA Synthesis

>  <Form>
free base

>  <CAS>
65-71-4

>  <URL>
https://www.selleckchem.com/products/thymine.html

$$$$
