S9393 (4S)-4-Hydroxy-L-isoleucine.cdx
 OpenBabel08302520433D

 23 22  0  0  0  0  0  0  0  0999 V2000
    1.0108   -2.1788    0.9465 C   0  0  2  0  0  0  0  0  0  0  0  0
    2.5457   -2.4170    0.8904 C   0  0  1  0  0  0  0  0  0  0  0  0
    0.5549   -1.2358   -0.1916 C   0  0  2  0  0  0  0  0  0  0  0  0
    0.5314   -1.6886    2.3198 C   0  0  0  0  0  0  0  0  0  0  0  0
    3.3471   -1.1623    1.2915 C   0  0  0  0  0  0  0  0  0  0  0  0
    2.9412   -3.5524    1.7612 N   0  0  0  0  0  0  0  0  0  0  0  0
   -0.9503   -0.9833   -0.2623 C   0  0  0  0  0  0  0  0  0  0  0  0
    0.9972   -1.7837   -1.4369 O   0  0  0  0  0  0  0  0  0  0  0  0
    3.6132   -0.3253    0.2610 O   0  0  0  0  0  0  0  0  0  0  0  0
    3.7199   -0.9270    2.4327 O   0  0  0  0  0  0  0  0  0  0  0  0
    0.5382   -3.1552    0.7616 H   0  0  0  0  0  0  0  0  0  0  0  0
    2.8579   -2.7059   -0.1202 H   0  0  0  0  0  0  0  0  0  0  0  0
    1.0482   -0.2625   -0.0951 H   0  0  0  0  0  0  0  0  0  0  0  0
   -0.5613   -1.6719    2.3762 H   0  0  0  0  0  0  0  0  0  0  0  0
    0.8739   -2.3473    3.1235 H   0  0  0  0  0  0  0  0  0  0  0  0
    0.8879   -0.6757    2.5315 H   0  0  0  0  0  0  0  0  0  0  0  0
    3.9472   -3.6994    1.6602 H   0  0  0  0  0  0  0  0  0  0  0  0
    2.8485   -3.2459    2.7334 H   0  0  0  0  0  0  0  0  0  0  0  0
   -1.5220   -1.7062    0.3277 H   0  0  0  0  0  0  0  0  0  0  0  0
   -1.1804    0.0118    0.1355 H   0  0  0  0  0  0  0  0  0  0  0  0
   -1.3259   -1.0283   -1.2899 H   0  0  0  0  0  0  0  0  0  0  0  0
    0.4335   -2.5595   -1.6311 H   0  0  0  0  0  0  0  0  0  0  0  0
    3.2654   -0.6405   -0.5998 H   0  0  0  0  0  0  0  0  0  0  0  0
  1  2  1  0  0  0  0
  1  4  1  0  0  0  0
  1 11  1  6  0  0  0
  2  5  1  0  0  0  0
  2  6  1  0  0  0  0
  2 12  1  6  0  0  0
  3  8  1  0  0  0  0
  3 13  1  1  0  0  0
  3  7  1  0  0  0  0
  3  1  1  0  0  0  0
  4 14  1  0  0  0  0
  4 15  1  0  0  0  0
  4 16  1  0  0  0  0
  5  9  1  0  0  0  0
  5 10  2  0  0  0  0
  6 17  1  0  0  0  0
  6 18  1  0  0  0  0
  7 19  1  0  0  0  0
  7 20  1  0  0  0  0
  7 21  1  0  0  0  0
  8 22  1  0  0  0  0
  9 23  1  0  0  0  0
M  END
>  <Mol_ID>
4243

>  <Formula>
C6H13NO3

>  <MolWeight>
147.17232

>  <Cat>
S9393

>  <Name>
(4S)-4-Hydroxy-L-isoleucine

>  <Target>
Others

>  <Form>
free base

>  <CAS>
55399-93-4

>  <URL>
https://www.selleckchem.com/products/4s-4-hydroxy-l-isoleucine.html

$$$$
