S9413 Yangonin.cdx
 OpenBabel08302520453D

 33 34  0  0  0  0  0  0  0  0999 V2000
   -1.1389   -1.1610    0.0722 C   0  0  0  0  0  0  0  0  0  0  0  0
   -1.8499   -0.0265    0.0452 C   0  0  0  0  0  0  0  0  0  0  0  0
   -1.7512   -2.4728    0.0852 C   0  0  0  0  0  0  0  0  0  0  0  0
    0.2723   -1.1463    0.0661 O   0  0  0  0  0  0  0  0  0  0  0  0
   -1.1749    1.2420    0.0105 C   0  0  0  0  0  0  0  0  0  0  0  0
   -1.0853   -3.6403    0.0943 C   0  0  0  0  0  0  0  0  0  0  0  0
    0.9523    0.0354    0.0264 C   0  0  0  0  0  0  0  0  0  0  0  0
    0.1647    1.2798   -0.0002 C   0  0  0  0  0  0  0  0  0  0  0  0
   -2.0396    2.3081   -0.0111 O   0  0  0  0  0  0  0  0  0  0  0  0
   -1.7364   -4.9592    0.0530 C   0  0  0  0  0  0  0  0  0  0  0  0
    2.1765    0.0894    0.0119 O   0  0  0  0  0  0  0  0  0  0  0  0
   -1.4713    3.6128   -0.0442 C   0  0  0  0  0  0  0  0  0  0  0  0
   -2.9535   -5.1663   -0.6085 C   0  0  0  0  0  0  0  0  0  0  0  0
   -1.0944   -6.0626    0.6261 C   0  0  0  0  0  0  0  0  0  0  0  0
   -3.5360   -6.4367   -0.6678 C   0  0  0  0  0  0  0  0  0  0  0  0
   -1.6771   -7.3338    0.5650 C   0  0  0  0  0  0  0  0  0  0  0  0
   -2.9022   -7.5268   -0.0759 C   0  0  0  0  0  0  0  0  0  0  0  0
   -3.3706   -8.8117   -0.0595 O   0  0  0  0  0  0  0  0  0  0  0  0
   -4.6149   -9.0439   -0.7093 C   0  0  0  0  0  0  0  0  0  0  0  0
   -2.9355   -0.0272    0.0397 H   0  0  0  0  0  0  0  0  0  0  0  0
   -2.8393   -2.4760    0.0803 H   0  0  0  0  0  0  0  0  0  0  0  0
    0.0023   -3.6557    0.1285 H   0  0  0  0  0  0  0  0  0  0  0  0
    0.7456    2.1891   -0.0300 H   0  0  0  0  0  0  0  0  0  0  0  0
   -0.8614    3.7961    0.8465 H   0  0  0  0  0  0  0  0  0  0  0  0
   -0.8851    3.7602   -0.9569 H   0  0  0  0  0  0  0  0  0  0  0  0
   -2.2907    4.3378   -0.0476 H   0  0  0  0  0  0  0  0  0  0  0  0
   -3.4651   -4.3448   -1.1029 H   0  0  0  0  0  0  0  0  0  0  0  0
   -0.1375   -5.9475    1.1302 H   0  0  0  0  0  0  0  0  0  0  0  0
   -4.4808   -6.5350   -1.1905 H   0  0  0  0  0  0  0  0  0  0  0  0
   -1.1682   -8.1808    1.0192 H   0  0  0  0  0  0  0  0  0  0  0  0
   -5.4137   -8.4352   -0.2720 H   0  0  0  0  0  0  0  0  0  0  0  0
   -4.5304   -8.8688   -1.7872 H   0  0  0  0  0  0  0  0  0  0  0  0
   -4.8819  -10.0941   -0.5600 H   0  0  0  0  0  0  0  0  0  0  0  0
  1  2  2  0  0  0  0
  1  3  1  0  0  0  0
  1  4  1  0  0  0  0
  2  5  1  0  0  0  0
  2 20  1  0  0  0  0
  3  6  2  0  0  0  0
  3 21  1  0  0  0  0
  4  7  1  0  0  0  0
  5  8  2  0  0  0  0
  5  9  1  0  0  0  0
  6 10  1  0  0  0  0
  6 22  1  0  0  0  0
  7 11  2  0  0  0  0
  7  8  1  0  0  0  0
  8 23  1  0  0  0  0
  9 12  1  0  0  0  0
 10 13  2  0  0  0  0
 10 14  1  0  0  0  0
 12 24  1  0  0  0  0
 12 25  1  0  0  0  0
 12 26  1  0  0  0  0
 13 15  1  0  0  0  0
 13 27  1  0  0  0  0
 14 16  2  0  0  0  0
 14 28  1  0  0  0  0
 15 17  2  0  0  0  0
 15 29  1  0  0  0  0
 16 17  1  0  0  0  0
 16 30  1  0  0  0  0
 17 18  1  0  0  0  0
 18 19  1  0  0  0  0
 19 31  1  0  0  0  0
 19 32  1  0  0  0  0
 19 33  1  0  0  0  0
M  END
>  <Mol_ID>
4261

>  <Formula>
C15H14O4

>  <MolWeight>
258.26926

>  <Cat>
S9413

>  <Name>
Yangonin

>  <Synonyms>
Y100550

>  <Target>
Cannabinoid Receptor,Fungal

>  <Form>
free base

>  <CAS>
500-62-9

>  <URL>
https://www.selleckchem.com/products/yangonin.html

$$$$
