S9420 Sinoacutine.cdx
 OpenBabel08302520452D

 45 48  0  0  0  0  0  0  0  0999 V2000
    6.2542    4.1941    0.0000 C   0  0  1  0  0  0  0  0  0  0  0  0
    5.0420    4.8849    0.0000 C   0  0  0  0  0  0  0  0  0  0  0  0
    7.4618    4.8849    0.0000 C   0  0  0  0  0  0  0  0  0  0  0  0
    6.2542    2.7796    0.0000 C   0  0  0  0  0  0  0  0  0  0  0  0
    5.7139    5.5144    0.0000 C   0  0  0  0  0  0  0  0  0  0  0  0
    5.0420    6.2803    0.0000 C   0  0  0  0  0  0  0  0  0  0  0  0
    3.7968    4.2128    0.0000 C   0  0  0  0  0  0  0  0  0  0  0  0
    7.4618    6.2803    0.0000 C   0  0  1  0  0  0  0  0  0  0  0  0
    8.6743    4.1754    0.0000 C   0  0  0  0  0  0  0  0  0  0  0  0
    7.4431    2.0936    0.0000 C   0  0  0  0  0  0  0  0  0  0  0  0
    5.7139    8.1411    0.0000 C   0  0  0  0  0  0  0  0  0  0  0  0
    6.2542    6.9853    0.0000 C   0  0  0  0  0  0  0  0  0  0  0  0
    3.7779    6.9664    0.0000 C   0  0  0  0  0  0  0  0  0  0  0  0
    2.5844    4.8849    0.0000 C   0  0  0  0  0  0  0  0  0  0  0  0
    3.7968    2.7233    0.0000 O   0  0  0  0  0  0  0  0  0  0  0  0
    7.4618    8.4559    0.0000 N   0  0  0  0  0  0  0  0  0  0  0  0
    8.6554    2.7796    0.0000 C   0  0  0  0  0  0  0  0  0  0  0  0
    2.5844    6.2803    0.0000 C   0  0  0  0  0  0  0  0  0  0  0  0
    1.3016    4.1189    0.0000 O   0  0  0  0  0  0  0  0  0  0  0  0
    8.3219    9.6683    0.0000 C   0  0  0  0  0  0  0  0  0  0  0  0
    9.8443    2.0749    0.0000 O   0  0  0  0  0  0  0  0  0  0  0  0
    0.0000    4.8473    0.0000 C   0  0  0  0  0  0  0  0  0  0  0  0
    7.4372    0.6936    0.0000 O   0  0  0  0  0  0  0  0  0  0  0  0
    6.2211    0.0000    0.0000 C   0  0  0  0  0  0  0  0  0  0  0  0
    5.3605    2.2635    0.0000 H   0  0  0  0  0  0  0  0  0  0  0  0
    4.6640    5.3079    0.0000 H   0  0  0  0  0  0  0  0  0  0  0  0
    4.8875    6.1941    0.0000 H   0  0  0  0  0  0  0  0  0  0  0  0
    6.5339    5.7475    0.0000 H   0  0  0  0  0  0  0  0  0  0  0  0
    9.5730    4.6827    0.0000 H   0  0  0  0  0  0  0  0  0  0  0  0
    4.8930    8.8274    0.0000 H   0  0  0  0  0  0  0  0  0  0  0  0
    5.9880    9.1754    0.0000 H   0  0  0  0  0  0  0  0  0  0  0  0
    6.2551    8.0553    0.0000 H   0  0  0  0  0  0  0  0  0  0  0  0
    7.1824    7.5177    0.0000 H   0  0  0  0  0  0  0  0  0  0  0  0
    3.7653    7.9983    0.0000 H   0  0  0  0  0  0  0  0  0  0  0  0
    2.9853    2.2548    0.0000 H   0  0  0  0  0  0  0  0  0  0  0  0
    1.6911    6.7971    0.0000 H   0  0  0  0  0  0  0  0  0  0  0  0
    9.3872    9.5685    0.0000 H   0  0  0  0  0  0  0  0  0  0  0  0
    7.8757   10.6408    0.0000 H   0  0  0  0  0  0  0  0  0  0  0  0
    8.9410   10.5410    0.0000 H   0  0  0  0  0  0  0  0  0  0  0  0
   -0.0143    5.9172    0.0000 H   0  0  0  0  0  0  0  0  0  0  0  0
   -0.9194    4.2999    0.0000 H   0  0  0  0  0  0  0  0  0  0  0  0
   -0.9337    5.3698    0.0000 H   0  0  0  0  0  0  0  0  0  0  0  0
    5.2973    0.5399    0.0000 H   0  0  0  0  0  0  0  0  0  0  0  0
    6.2155   -1.0700    0.0000 H   0  0  0  0  0  0  0  0  0  0  0  0
    5.2916   -0.5301    0.0000 H   0  0  0  0  0  0  0  0  0  0  0  0
  1  2  1  1  0  0  0
  1  3  1  0  0  0  0
  1  4  1  0  0  0  0
  1  5  1  0  0  0  0
  2  6  2  0  0  0  0
  2  7  1  0  0  0  0
  3  8  1  0  0  0  0
  3  9  2  0  0  0  0
  4 10  2  0  0  0  0
  4 25  1  0  0  0  0
  5 11  1  0  0  0  0
  5 26  1  0  0  0  0
  5 27  1  0  0  0  0
  6 12  1  0  0  0  0
  6 13  1  0  0  0  0
  7 14  2  0  0  0  0
  7 15  1  0  0  0  0
  8 16  1  0  0  0  0
  8 12  1  0  0  0  0
  8 28  1  6  0  0  0
  9 17  1  0  0  0  0
  9 29  1  0  0  0  0
 10 17  1  0  0  0  0
 10 23  1  0  0  0  0
 11 16  1  0  0  0  0
 11 30  1  0  0  0  0
 11 31  1  0  0  0  0
 12 32  1  0  0  0  0
 12 33  1  0  0  0  0
 13 18  2  0  0  0  0
 13 34  1  0  0  0  0
 14 19  1  0  0  0  0
 14 18  1  0  0  0  0
 15 35  1  0  0  0  0
 16 20  1  0  0  0  0
 17 21  2  0  0  0  0
 18 36  1  0  0  0  0
 19 22  1  0  0  0  0
 20 37  1  0  0  0  0
 20 38  1  0  0  0  0
 20 39  1  0  0  0  0
 22 40  1  0  0  0  0
 22 41  1  0  0  0  0
 22 42  1  0  0  0  0
 23 24  1  0  0  0  0
 24 43  1  0  0  0  0
 24 44  1  0  0  0  0
 24 45  1  0  0  0  0
M  END
>  <Mol_ID>
4266

>  <Formula>
C19H21NO4

>  <MolWeight>
327.37434

>  <Cat>
S9420

>  <Name>
Sinoacutine

>  <Synonyms>
Salutaridine

>  <Target>
Others

>  <Form>
free base

>  <CAS>
4090-18-0

>  <URL>
https://www.selleckchem.com/products/sinoacutine.html

$$$$
