S9435 Secoxyloganin.cdx
 OpenBabel08302521033D

 52 53  0  0  0  0  0  0  0  0999 V2000
    1.3310   -4.8927    1.1346 C   0  0  1  0  0  0  0  0  0  0  0  0
    0.5420   -5.4831    2.3375 C   0  0  1  0  0  0  0  0  0  0  0  0
   -0.0678   -6.8828    1.9578 C   0  0  1  0  0  0  0  0  0  0  0  0
   -0.6452   -6.7996    0.5464 C   0  0  0  0  0  0  0  0  0  0  0  0
   -0.3424   -5.7863   -0.2830 C   0  0  0  0  0  0  0  0  0  0  0  0
    0.5032   -4.7481   -0.0247 O   0  0  0  0  0  0  0  0  0  0  0  0
    1.4061   -8.3954    3.4332 C   0  0  0  0  0  0  0  0  0  0  0  0
    0.8932   -8.0902    2.0495 C   0  0  0  0  0  0  0  0  0  0  0  0
    2.5781   -8.4180    3.7615 O   0  0  0  0  0  0  0  0  0  0  0  0
    0.4350   -8.6841    4.3159 O   0  0  0  0  0  0  0  0  0  0  0  0
   -1.6254   -7.8368    0.1063 C   0  0  0  0  0  0  0  0  0  0  0  0
   -1.9830   -8.7653    0.8161 O   0  0  0  0  0  0  0  0  0  0  0  0
   -2.0382   -7.6182   -1.1687 O   0  0  0  0  0  0  0  0  0  0  0  0
   -2.9633   -8.5747   -1.6916 C   0  0  0  0  0  0  0  0  0  0  0  0
    1.8739   -3.6118    1.5031 O   0  0  0  0  0  0  0  0  0  0  0  0
    2.6747   -3.0376    0.4705 C   0  0  1  0  0  0  0  0  0  0  0  0
    3.3004   -1.7077    0.9693 C   0  0  2  0  0  0  0  0  0  0  0  0
    2.3146   -0.7277    1.3280 O   0  0  0  0  0  0  0  0  0  0  0  0
    4.2259   -1.1279   -0.1209 C   0  0  1  0  0  0  0  0  0  0  0  0
    4.9420    0.0254    0.3414 O   0  0  0  0  0  0  0  0  0  0  0  0
    5.2230   -2.1781   -0.6391 C   0  0  2  0  0  0  0  0  0  0  0  0
    5.9604   -1.6961   -1.7654 O   0  0  0  0  0  0  0  0  0  0  0  0
    4.4787   -3.4608   -1.0179 C   0  0  2  0  0  0  0  0  0  0  0  0
    3.7141   -3.9427    0.0948 O   0  0  0  0  0  0  0  0  0  0  0  0
    5.4577   -4.5653   -1.4264 C   0  0  0  0  0  0  0  0  0  0  0  0
    4.7277   -5.7451   -1.7680 O   0  0  0  0  0  0  0  0  0  0  0  0
    1.4087   -5.4463    3.5817 C   0  0  0  0  0  0  0  0  0  0  0  0
    1.0895   -4.8311    4.7273 C   0  0  0  0  0  0  0  0  0  0  0  0
    2.1570   -5.5724    0.8911 H   0  0  0  0  0  0  0  0  0  0  0  0
   -0.3170   -4.8156    2.5120 H   0  0  0  0  0  0  0  0  0  0  0  0
   -0.9008   -7.0605    2.6532 H   0  0  0  0  0  0  0  0  0  0  0  0
   -0.7671   -5.6523   -1.2725 H   0  0  0  0  0  0  0  0  0  0  0  0
    0.3995   -9.0131    1.7166 H   0  0  0  0  0  0  0  0  0  0  0  0
    1.7541   -7.9543    1.3879 H   0  0  0  0  0  0  0  0  0  0  0  0
    0.9067   -8.8610    5.1529 H   0  0  0  0  0  0  0  0  0  0  0  0
   -2.4768   -9.5470   -1.8121 H   0  0  0  0  0  0  0  0  0  0  0  0
   -3.8483   -8.6540   -1.0522 H   0  0  0  0  0  0  0  0  0  0  0  0
   -3.2832   -8.2252   -2.6787 H   0  0  0  0  0  0  0  0  0  0  0  0
    2.0220   -2.8280   -0.3859 H   0  0  0  0  0  0  0  0  0  0  0  0
    3.8821   -1.8903    1.8810 H   0  0  0  0  0  0  0  0  0  0  0  0
    1.6509   -0.6728    0.6202 H   0  0  0  0  0  0  0  0  0  0  0  0
    3.6165   -0.7576   -0.9541 H   0  0  0  0  0  0  0  0  0  0  0  0
    5.2544   -0.1457    1.2479 H   0  0  0  0  0  0  0  0  0  0  0  0
    5.9542   -2.3862    0.1515 H   0  0  0  0  0  0  0  0  0  0  0  0
    5.4078   -1.0662   -2.2610 H   0  0  0  0  0  0  0  0  0  0  0  0
    3.7960   -3.2848   -1.8600 H   0  0  0  0  0  0  0  0  0  0  0  0
    6.0557   -4.2729   -2.2944 H   0  0  0  0  0  0  0  0  0  0  0  0
    6.1303   -4.8223   -0.6014 H   0  0  0  0  0  0  0  0  0  0  0  0
    4.1752   -5.9442   -0.9895 H   0  0  0  0  0  0  0  0  0  0  0  0
    2.4081   -5.8738    3.5014 H   0  0  0  0  0  0  0  0  0  0  0  0
    1.8058   -4.7928    5.5438 H   0  0  0  0  0  0  0  0  0  0  0  0
    0.1418   -4.3223    4.8679 H   0  0  0  0  0  0  0  0  0  0  0  0
  1  2  1  0  0  0  0
  1  6  1  0  0  0  0
  1 15  1  0  0  0  0
  1 29  1  6  0  0  0
  2  3  1  0  0  0  0
  2 27  1  0  0  0  0
  2 30  1  1  0  0  0
  3  4  1  0  0  0  0
  3  8  1  0  0  0  0
  3 31  1  1  0  0  0
  4  5  2  0  0  0  0
  4 11  1  0  0  0  0
  5  6  1  0  0  0  0
  5 32  1  0  0  0  0
  7  8  1  0  0  0  0
  7  9  2  0  0  0  0
  7 10  1  0  0  0  0
  8 33  1  0  0  0  0
  8 34  1  0  0  0  0
 10 35  1  0  0  0  0
 11 12  2  0  0  0  0
 11 13  1  0  0  0  0
 13 14  1  0  0  0  0
 14 36  1  0  0  0  0
 14 37  1  0  0  0  0
 14 38  1  0  0  0  0
 16 17  1  0  0  0  0
 16 24  1  0  0  0  0
 16 39  1  6  0  0  0
 16 15  1  0  0  0  0
 17 18  1  0  0  0  0
 17 19  1  0  0  0  0
 17 40  1  1  0  0  0
 18 41  1  0  0  0  0
 19 20  1  0  0  0  0
 19 21  1  0  0  0  0
 19 42  1  6  0  0  0
 20 43  1  0  0  0  0
 21 22  1  0  0  0  0
 21 23  1  0  0  0  0
 21 44  1  1  0  0  0
 22 45  1  0  0  0  0
 23 24  1  0  0  0  0
 23 25  1  0  0  0  0
 23 46  1  6  0  0  0
 25 26  1  0  0  0  0
 25 47  1  0  0  0  0
 25 48  1  0  0  0  0
 26 49  1  0  0  0  0
 27 28  2  0  0  0  0
 27 50  1  0  0  0  0
 28 51  1  0  0  0  0
 28 52  1  0  0  0  0
M  END
>  <Mol_ID>
4278

>  <Formula>
C17H24O11

>  <MolWeight>
404.36586

>  <Cat>
S9435

>  <Name>
Secoxyloganin

>  <Target>
Others

>  <Form>
free base

>  <CAS>
58822-47-2

>  <URL>
https://www.selleckchem.com/products/secoxyloganin.html

$$$$
