S9437 Echinatin.cdx
 OpenBabel08302521043D

 34 35  0  0  0  0  0  0  0  0999 V2000
    0.0949   -1.3076    0.0668 C   0  0  0  0  0  0  0  0  0  0  0  0
   -0.1979   -0.5112    1.1891 C   0  0  0  0  0  0  0  0  0  0  0  0
    0.7235   -2.6321    0.0991 C   0  0  0  0  0  0  0  0  0  0  0  0
   -0.1728   -0.7925   -1.2205 C   0  0  0  0  0  0  0  0  0  0  0  0
   -0.7427    0.7696    0.9903 C   0  0  0  0  0  0  0  0  0  0  0  0
   -0.0210   -0.7666    2.5213 O   0  0  0  0  0  0  0  0  0  0  0  0
    0.0382   -3.7859    0.0747 C   0  0  0  0  0  0  0  0  0  0  0  0
   -0.7098    0.4861   -1.3995 C   0  0  0  0  0  0  0  0  0  0  0  0
   -0.9905    1.2592   -0.2856 C   0  0  0  0  0  0  0  0  0  0  0  0
    0.5173   -2.0004    2.9585 C   0  0  0  0  0  0  0  0  0  0  0  0
    0.7956   -5.0691    0.1487 C   0  0  0  0  0  0  0  0  0  0  0  0
   -1.5052    2.5162   -0.3962 O   0  0  0  0  0  0  0  0  0  0  0  0
    0.0773   -6.3323   -0.1718 C   0  0  0  0  0  0  0  0  0  0  0  0
    1.9695   -5.1033    0.5018 O   0  0  0  0  0  0  0  0  0  0  0  0
   -0.9881   -6.3752   -1.0838 C   0  0  0  0  0  0  0  0  0  0  0  0
    0.5189   -7.5194    0.4308 C   0  0  0  0  0  0  0  0  0  0  0  0
   -1.6223   -7.5894   -1.3647 C   0  0  0  0  0  0  0  0  0  0  0  0
   -0.1194   -8.7293    0.1511 C   0  0  0  0  0  0  0  0  0  0  0  0
   -1.1867   -8.7545   -0.7399 C   0  0  0  0  0  0  0  0  0  0  0  0
   -1.7806   -9.9548   -0.9834 O   0  0  0  0  0  0  0  0  0  0  0  0
    1.8131   -2.6248    0.1294 H   0  0  0  0  0  0  0  0  0  0  0  0
    0.0611   -1.3834   -2.1050 H   0  0  0  0  0  0  0  0  0  0  0  0
   -0.9631    1.3976    1.8510 H   0  0  0  0  0  0  0  0  0  0  0  0
   -1.0432   -3.8120    0.0517 H   0  0  0  0  0  0  0  0  0  0  0  0
   -0.8866    0.8573   -2.4040 H   0  0  0  0  0  0  0  0  0  0  0  0
   -0.1561   -2.8291    2.7249 H   0  0  0  0  0  0  0  0  0  0  0  0
    1.5284   -2.1594    2.5738 H   0  0  0  0  0  0  0  0  0  0  0  0
    0.5956   -1.9518    4.0497 H   0  0  0  0  0  0  0  0  0  0  0  0
   -1.6115    2.7330   -1.3363 H   0  0  0  0  0  0  0  0  0  0  0  0
   -1.3194   -5.4818   -1.6042 H   0  0  0  0  0  0  0  0  0  0  0  0
    1.3607   -7.5060    1.1203 H   0  0  0  0  0  0  0  0  0  0  0  0
   -2.4436   -7.6081   -2.0753 H   0  0  0  0  0  0  0  0  0  0  0  0
    0.2183   -9.6487    0.6221 H   0  0  0  0  0  0  0  0  0  0  0  0
   -2.5022   -9.8291   -1.6218 H   0  0  0  0  0  0  0  0  0  0  0  0
  1  2  2  0  0  0  0
  1  3  1  0  0  0  0
  1  4  1  0  0  0  0
  2  5  1  0  0  0  0
  2  6  1  0  0  0  0
  3  7  2  0  0  0  0
  3 21  1  0  0  0  0
  4  8  2  0  0  0  0
  4 22  1  0  0  0  0
  5  9  2  0  0  0  0
  5 23  1  0  0  0  0
  6 10  1  0  0  0  0
  7 11  1  0  0  0  0
  7 24  1  0  0  0  0
  8  9  1  0  0  0  0
  8 25  1  0  0  0  0
  9 12  1  0  0  0  0
 10 26  1  0  0  0  0
 10 27  1  0  0  0  0
 10 28  1  0  0  0  0
 11 13  1  0  0  0  0
 11 14  2  0  0  0  0
 12 29  1  0  0  0  0
 13 15  2  0  0  0  0
 13 16  1  0  0  0  0
 15 17  1  0  0  0  0
 15 30  1  0  0  0  0
 16 18  2  0  0  0  0
 16 31  1  0  0  0  0
 17 19  2  0  0  0  0
 17 32  1  0  0  0  0
 18 19  1  0  0  0  0
 18 33  1  0  0  0  0
 19 20  1  0  0  0  0
 20 34  1  0  0  0  0
M  END
>  <Mol_ID>
4280

>  <Formula>
C16H14O4

>  <MolWeight>
270.27996

>  <Cat>
S9437

>  <Name>
Echinatin

>  <Target>
Immunology & Inflammation related

>  <Form>
free base

>  <CAS>
34221-41-5

>  <URL>
https://www.selleckchem.com/products/echinatin.html

$$$$
