S9442 Bergaptol.cdx
 OpenBabel08302521043D

 21 23  0  0  0  0  0  0  0  0999 V2000
   -0.9263   -0.7980    0.0842 C   0  0  0  0  0  0  0  0  0  0  0  0
   -0.8989    0.6001    0.1776 C   0  0  0  0  0  0  0  0  0  0  0  0
    0.2978   -1.4979    0.0541 C   0  0  0  0  0  0  0  0  0  0  0  0
   -2.2326   -1.4419   -0.0518 C   0  0  0  0  0  0  0  0  0  0  0  0
    0.2796    1.3492    0.2298 C   0  0  0  0  0  0  0  0  0  0  0  0
   -2.0950    1.3567    0.1776 O   0  0  0  0  0  0  0  0  0  0  0  0
    1.5059   -0.7689    0.0206 C   0  0  0  0  0  0  0  0  0  0  0  0
    0.3657   -2.8658    0.0098 O   0  0  0  0  0  0  0  0  0  0  0  0
   -3.3447   -0.7024   -0.1220 C   0  0  0  0  0  0  0  0  0  0  0  0
    1.4535    0.6162    0.1124 C   0  0  0  0  0  0  0  0  0  0  0  0
   -3.3281    0.7644   -0.0319 C   0  0  0  0  0  0  0  0  0  0  0  0
    2.8859   -1.0892   -0.1053 C   0  0  0  0  0  0  0  0  0  0  0  0
    2.7062    1.1454    0.0500 O   0  0  0  0  0  0  0  0  0  0  0  0
   -4.3653    1.4119   -0.1305 O   0  0  0  0  0  0  0  0  0  0  0  0
    3.5672    0.1066   -0.1035 C   0  0  0  0  0  0  0  0  0  0  0  0
   -2.3018   -2.5173   -0.1541 H   0  0  0  0  0  0  0  0  0  0  0  0
    0.2838    2.4292    0.2985 H   0  0  0  0  0  0  0  0  0  0  0  0
   -0.4402   -3.2380    0.4026 H   0  0  0  0  0  0  0  0  0  0  0  0
   -4.3202   -1.1504   -0.2669 H   0  0  0  0  0  0  0  0  0  0  0  0
    3.3193   -2.0729   -0.2152 H   0  0  0  0  0  0  0  0  0  0  0  0
    4.6092    0.3758   -0.2015 H   0  0  0  0  0  0  0  0  0  0  0  0
  1  2  1  0  0  0  0
  1  3  2  0  0  0  0
  1  4  1  0  0  0  0
  2  5  2  0  0  0  0
  2  6  1  0  0  0  0
  3  7  1  0  0  0  0
  3  8  1  0  0  0  0
  4  9  2  0  0  0  0
  4 16  1  0  0  0  0
  5 10  1  0  0  0  0
  5 17  1  0  0  0  0
  6 11  1  0  0  0  0
  7 12  1  0  0  0  0
  7 10  2  0  0  0  0
  8 18  1  0  0  0  0
  9 11  1  0  0  0  0
  9 19  1  0  0  0  0
 10 13  1  0  0  0  0
 11 14  2  0  0  0  0
 12 15  2  0  0  0  0
 12 20  1  0  0  0  0
 13 15  1  0  0  0  0
 15 21  1  0  0  0  0
M  END
>  <Mol_ID>
4285

>  <Formula>
C11H6O4

>  <MolWeight>
202.16294

>  <Cat>
S9442

>  <Name>
Bergaptol

>  <Synonyms>
5-Hydroxypsoralen, 5-Hydroxyfuranocoumarin

>  <Target>
P450 (e.g. CYP17)

>  <Form>
free base

>  <CAS>
486-60-2

>  <URL>
https://www.selleckchem.com/products/bergaptol.html

$$$$
