S 38093.cdx
 OpenBabel08302520433D

 45 47  0  0  0  0  0  0  0  0999 V2000
   -0.3182   -2.6514   -4.9373 C   0  0  0  0  0  0  0  0  0  0  0  0
   -0.0781   -3.4888   -3.8498 C   0  0  0  0  0  0  0  0  0  0  0  0
   -0.8581   -4.6405   -3.7028 C   0  0  0  0  0  0  0  0  0  0  0  0
   -1.8740   -4.9568   -4.6228 C   0  0  0  0  0  0  0  0  0  0  0  0
   -2.1156   -4.1185   -5.7134 C   0  0  0  0  0  0  0  0  0  0  0  0
   -1.3300   -2.9656   -5.8615 C   0  0  0  0  0  0  0  0  0  0  0  0
    0.8809   -3.3129   -2.8839 O   0  0  0  0  0  0  0  0  0  0  0  0
    1.5313   -2.0379   -2.8187 C   0  0  0  0  0  0  0  0  0  0  0  0
    2.3957   -1.9711   -1.5450 C   0  0  0  0  0  0  0  0  0  0  0  0
    3.0603   -0.5902   -1.4035 C   0  0  0  0  0  0  0  0  0  0  0  0
    3.6746   -0.2952   -0.1033 N   0  0  0  0  0  0  0  0  0  0  0  0
    4.2287    1.0691   -0.0438 C   0  0  0  0  0  0  0  0  0  0  0  0
    5.7137    0.9627   -0.3708 C   0  0  3  0  0  0  0  0  0  0  0  0
    6.0960   -0.4352    0.1075 C   0  0  3  0  0  0  0  0  0  0  0  0
    4.7680   -1.1705    0.3279 C   0  0  0  0  0  0  0  0  0  0  0  0
    6.0665    1.0356   -1.8601 C   0  0  0  0  0  0  0  0  0  0  0  0
    6.6503   -0.3131   -2.2584 C   0  0  0  0  0  0  0  0  0  0  0  0
    7.0066   -1.0184   -0.9634 C   0  0  0  0  0  0  0  0  0  0  0  0
   -3.1566   -4.3944   -6.7507 C   0  0  0  0  0  0  0  0  0  0  0  0
   -3.9363   -5.5097   -6.6373 N   0  0  0  0  0  0  0  0  0  0  0  0
   -3.3167   -3.6382   -7.7063 O   0  0  0  0  0  0  0  0  0  0  0  0
    0.2649   -1.7532   -5.1093 H   0  0  0  0  0  0  0  0  0  0  0  0
   -0.6785   -5.3008   -2.8581 H   0  0  0  0  0  0  0  0  0  0  0  0
   -2.4435   -5.8602   -4.4530 H   0  0  0  0  0  0  0  0  0  0  0  0
   -1.4989   -2.2997   -6.7075 H   0  0  0  0  0  0  0  0  0  0  0  0
    2.1687   -1.9036   -3.7008 H   0  0  0  0  0  0  0  0  0  0  0  0
    0.7780   -1.2417   -2.7825 H   0  0  0  0  0  0  0  0  0  0  0  0
    1.7697   -2.1926   -0.6726 H   0  0  0  0  0  0  0  0  0  0  0  0
    3.1537   -2.7634   -1.5875 H   0  0  0  0  0  0  0  0  0  0  0  0
    3.7697   -0.4635   -2.2242 H   0  0  0  0  0  0  0  0  0  0  0  0
    2.2705    0.1581   -1.5547 H   0  0  0  0  0  0  0  0  0  0  0  0
    3.6979    1.7909   -0.6751 H   0  0  0  0  0  0  0  0  0  0  0  0
    4.1213    1.4261    0.9900 H   0  0  0  0  0  0  0  0  0  0  0  0
    6.2757    1.7350    0.1681 H   0  0  0  0  0  0  0  0  0  0  0  0
    6.6374   -0.3839    1.0606 H   0  0  0  0  0  0  0  0  0  0  0  0
    4.6498   -1.3054    1.4124 H   0  0  0  0  0  0  0  0  0  0  0  0
    4.7483   -2.1778   -0.0965 H   0  0  0  0  0  0  0  0  0  0  0  0
    5.2129    1.3015   -2.4924 H   0  0  0  0  0  0  0  0  0  0  0  0
    6.8165    1.8204   -2.0167 H   0  0  0  0  0  0  0  0  0  0  0  0
    5.9205   -0.8996   -2.8247 H   0  0  0  0  0  0  0  0  0  0  0  0
    7.5313   -0.1918   -2.8988 H   0  0  0  0  0  0  0  0  0  0  0  0
    6.9149   -2.1055   -1.0535 H   0  0  0  0  0  0  0  0  0  0  0  0
    8.0518   -0.8023   -0.7104 H   0  0  0  0  0  0  0  0  0  0  0  0
   -4.6225   -5.6632   -7.3694 H   0  0  0  0  0  0  0  0  0  0  0  0
   -3.8809   -6.1917   -5.8977 H   0  0  0  0  0  0  0  0  0  0  0  0
  1  2  2  0  0  0  0
  1 22  1  0  0  0  0
  2  3  1  0  0  0  0
  2  7  1  0  0  0  0
  3  4  2  0  0  0  0
  3 23  1  0  0  0  0
  4  5  1  0  0  0  0
  4 24  1  0  0  0  0
  5  6  2  0  0  0  0
  5 19  1  0  0  0  0
  6  1  1  0  0  0  0
  6 25  1  0  0  0  0
  7  8  1  0  0  0  0
  8  9  1  0  0  0  0
  8 26  1  0  0  0  0
  8 27  1  0  0  0  0
  9 10  1  0  0  0  0
  9 28  1  0  0  0  0
  9 29  1  0  0  0  0
 10 11  1  0  0  0  0
 10 30  1  0  0  0  0
 10 31  1  0  0  0  0
 11 12  1  0  0  0  0
 12 13  1  0  0  0  0
 12 32  1  0  0  0  0
 12 33  1  0  0  0  0
 13 14  1  0  0  0  0
 13 16  1  0  0  0  0
 13 34  1  0  0  0  0
 14 15  1  0  0  0  0
 14 35  1  0  0  0  0
 15 11  1  0  0  0  0
 15 36  1  0  0  0  0
 15 37  1  0  0  0  0
 16 17  1  0  0  0  0
 16 38  1  0  0  0  0
 16 39  1  0  0  0  0
 17 18  1  0  0  0  0
 17 40  1  0  0  0  0
 17 41  1  0  0  0  0
 18 14  1  0  0  0  0
 18 42  1  0  0  0  0
 18 43  1  0  0  0  0
 19 20  1  0  0  0  0
 19 21  2  0  0  0  0
 20 44  1  0  0  0  0
 20 45  1  0  0  0  0
M  END
>  <Mol_ID>
4155

>  <Formula>
C17H24N2O2

>  <MolWeight>
288.38466

>  <Cat>
S8598

>  <Name>
S 38093

>  <Synonyms>
N/A

>  <Target>
Histamine Receptor

>  <Form>
free base

>  <CAS>
862896-30-8

>  <URL>
http://selleckchem.com/products/S-38093.html

$$$$
