Salicylamide
 OpenBabel08302520403D

 17 17  0  0  0  0  0  0  0  0999 V2000
    0.1612   -1.2736    0.0087 C   0  0  0  0  0  0  0  0  0  0  0  0
    0.8943   -0.0735    0.0109 C   0  0  0  0  0  0  0  0  0  0  0  0
   -1.2401   -1.2019   -0.0046 C   0  0  0  0  0  0  0  0  0  0  0  0
    0.8905   -2.5733    0.0246 C   0  0  0  0  0  0  0  0  0  0  0  0
    0.2465    1.1615    0.0068 C   0  0  0  0  0  0  0  0  0  0  0  0
    2.2646   -0.0257    0.0147 O   0  0  0  0  0  0  0  0  0  0  0  0
   -1.8874    0.0383   -0.0099 C   0  0  0  0  0  0  0  0  0  0  0  0
    0.1839   -3.7426    0.0234 N   0  0  0  0  0  0  0  0  0  0  0  0
    2.1194   -2.5977    0.0400 O   0  0  0  0  0  0  0  0  0  0  0  0
   -1.1453    1.2175   -0.0025 C   0  0  0  0  0  0  0  0  0  0  0  0
   -1.8602   -2.0906   -0.0117 H   0  0  0  0  0  0  0  0  0  0  0  0
    0.8308    2.0781    0.0108 H   0  0  0  0  0  0  0  0  0  0  0  0
    2.5994   -0.9512    0.0109 H   0  0  0  0  0  0  0  0  0  0  0  0
   -2.9741    0.0841   -0.0198 H   0  0  0  0  0  0  0  0  0  0  0  0
    0.7190   -4.6013    0.0459 H   0  0  0  0  0  0  0  0  0  0  0  0
   -0.8204   -3.8203    0.0249 H   0  0  0  0  0  0  0  0  0  0  0  0
   -1.6491    2.1809   -0.0049 H   0  0  0  0  0  0  0  0  0  0  0  0
  1  2  2  0  0  0  0
  1  3  1  0  0  0  0
  1  4  1  0  0  0  0
  2  5  1  0  0  0  0
  2  6  1  0  0  0  0
  3  7  2  0  0  0  0
  3 11  1  0  0  0  0
  4  8  1  0  0  0  0
  4  9  2  0  0  0  0
  5 10  2  0  0  0  0
  5 12  1  0  0  0  0
  6 13  1  0  0  0  0
  7 10  1  0  0  0  0
  7 14  1  0  0  0  0
  8 15  1  0  0  0  0
  8 16  1  0  0  0  0
 10 17  1  0  0  0  0
M  END
>  <Mol_ID>
3726

>  <Formula>
C7H7NO2

>  <MolWeight>
137.13598

>  <Cat>
S6404

>  <Name>
Salicylamide

>  <Synonyms>
o-hydroxybenzamide

>  <Target>
Immunology & Inflammation related

>  <Form>
Free Base

>  <CAS>
65-45-2

>  <URL>
http://www.selleck.cn/products/salicylamide.html

$$$$
