Salicylic acid.cdx
 OpenBabel08302519503D

 16 16  0  0  0  0  0  0  0  0999 V2000
    0.1694   -1.2756    0.0132 C   0  0  0  0  0  0  0  0  0  0  0  0
    0.8956   -0.0695    0.0126 C   0  0  0  0  0  0  0  0  0  0  0  0
   -1.2332   -1.2068   -0.0001 C   0  0  0  0  0  0  0  0  0  0  0  0
    0.9259   -2.5616    0.0307 C   0  0  0  0  0  0  0  0  0  0  0  0
    0.2430    1.1637    0.0098 C   0  0  0  0  0  0  0  0  0  0  0  0
    2.2659   -0.0054    0.0113 O   0  0  0  0  0  0  0  0  0  0  0  0
   -1.8842    0.0330   -0.0070 C   0  0  0  0  0  0  0  0  0  0  0  0
    0.2166   -3.7064    0.0340 O   0  0  0  0  0  0  0  0  0  0  0  0
    2.1495   -2.5695    0.0408 O   0  0  0  0  0  0  0  0  0  0  0  0
   -1.1478    1.2149    0.0006 C   0  0  0  0  0  0  0  0  0  0  0  0
   -1.8659   -2.0859   -0.0067 H   0  0  0  0  0  0  0  0  0  0  0  0
    0.8239    2.0827    0.0139 H   0  0  0  0  0  0  0  0  0  0  0  0
    2.6249   -0.9217    0.0062 H   0  0  0  0  0  0  0  0  0  0  0  0
   -2.9712    0.0770   -0.0184 H   0  0  0  0  0  0  0  0  0  0  0  0
   -0.7511   -3.6466    0.0335 H   0  0  0  0  0  0  0  0  0  0  0  0
   -1.6550    2.1768   -0.0024 H   0  0  0  0  0  0  0  0  0  0  0  0
  1  2  2  0  0  0  0
  1  3  1  0  0  0  0
  1  4  1  0  0  0  0
  2  5  1  0  0  0  0
  2  6  1  0  0  0  0
  3  7  2  0  0  0  0
  3 11  1  0  0  0  0
  4  8  1  0  0  0  0
  4  9  2  0  0  0  0
  5 10  2  0  0  0  0
  5 12  1  0  0  0  0
  6 13  1  0  0  0  0
  7 10  1  0  0  0  0
  7 14  1  0  0  0  0
  8 15  1  0  0  0  0
 10 16  1  0  0  0  0
M  END
>  <Mol_ID>
1503

>  <Formula>
C7H6O3

>  <MolWeight>
138.12074

>  <Cat>
S4539

>  <Name>
Salicylic acid

>  <Synonyms>
2-Hydroxybenzoic acid

>  <Target>
COX

>  <Form>
free base

>  <CAS>
69-72-7

>  <URL>
http://selleckchem.com/products/salicylic-acid.html

$$$$
