Salicin.cdx
 OpenBabel08302521373D

 38 39  0  0  0  0  0  0  0  0999 V2000
   -1.2946    1.3776   -0.1604 C   0  0  2  0  0  0  0  0  0  0  0  0
   -1.3750   -0.1074    0.1996 C   0  0  2  0  0  0  0  0  0  0  0  0
   -0.0828   -0.8133   -0.2514 C   0  0  1  0  0  0  0  0  0  0  0  0
    1.1749   -0.0959    0.2786 C   0  0  2  0  0  0  0  0  0  0  0  0
    1.0859    1.3986   -0.1034 C   0  0  1  0  0  0  0  0  0  0  0  0
   -0.1205    1.9596    0.4154 O   0  0  0  0  0  0  0  0  0  0  0  0
    2.3498   -0.7180   -0.2498 O   0  0  0  0  0  0  0  0  0  0  0  0
    1.6766    4.0387   -0.9841 C   0  0  0  0  0  0  0  0  0  0  0  0
    2.2432    3.4613    0.1643 C   0  0  0  0  0  0  0  0  0  0  0  0
    2.2193    2.1118    0.4255 O   0  0  0  0  0  0  0  0  0  0  0  0
    1.7180    5.4183   -1.1911 C   0  0  0  0  0  0  0  0  0  0  0  0
    2.3387    6.2400   -0.2633 C   0  0  0  0  0  0  0  0  0  0  0  0
    2.9291    5.6773    0.8682 C   0  0  0  0  0  0  0  0  0  0  0  0
    2.8963    4.2887    1.0936 C   0  0  0  0  0  0  0  0  0  0  0  0
    3.5136    3.7523    2.3615 C   0  0  0  0  0  0  0  0  0  0  0  0
    4.8759    4.1589    2.4636 O   0  0  0  0  0  0  0  0  0  0  0  0
   -2.5059    2.1648    0.3585 C   0  0  0  0  0  0  0  0  0  0  0  0
   -2.3607    3.5374   -0.0086 O   0  0  0  0  0  0  0  0  0  0  0  0
   -2.5299   -0.6837   -0.4121 O   0  0  0  0  0  0  0  0  0  0  0  0
   -0.1238   -2.1898    0.1391 O   0  0  0  0  0  0  0  0  0  0  0  0
   -1.2504    1.5124   -1.2496 H   0  0  0  0  0  0  0  0  0  0  0  0
   -1.4836   -0.2340    1.2844 H   0  0  0  0  0  0  0  0  0  0  0  0
   -0.0484   -0.8396   -1.3479 H   0  0  0  0  0  0  0  0  0  0  0  0
    1.2396   -0.2053    1.3671 H   0  0  0  0  0  0  0  0  0  0  0  0
    1.1136    1.4590   -1.1985 H   0  0  0  0  0  0  0  0  0  0  0  0
    2.2989   -0.7440   -1.2218 H   0  0  0  0  0  0  0  0  0  0  0  0
    1.1871    3.4433   -1.7462 H   0  0  0  0  0  0  0  0  0  0  0  0
    1.2546    5.8460   -2.0776 H   0  0  0  0  0  0  0  0  0  0  0  0
    2.3677    7.3150   -0.4154 H   0  0  0  0  0  0  0  0  0  0  0  0
    3.4117    6.3317    1.5957 H   0  0  0  0  0  0  0  0  0  0  0  0
    2.9705    4.1394    3.2305 H   0  0  0  0  0  0  0  0  0  0  0  0
    3.4922    2.6607    2.4145 H   0  0  0  0  0  0  0  0  0  0  0  0
    5.2520    4.0899    1.5690 H   0  0  0  0  0  0  0  0  0  0  0  0
   -3.4391    1.7918   -0.0696 H   0  0  0  0  0  0  0  0  0  0  0  0
   -2.5673    2.1178    1.4507 H   0  0  0  0  0  0  0  0  0  0  0  0
   -1.4846    3.8102    0.3293 H   0  0  0  0  0  0  0  0  0  0  0  0
   -2.2422   -1.3493   -1.0633 H   0  0  0  0  0  0  0  0  0  0  0  0
    0.0551   -2.2461    1.0953 H   0  0  0  0  0  0  0  0  0  0  0  0
  1  2  1  0  0  0  0
  1 17  1  0  0  0  0
  1 21  1  6  0  0  0
  2  3  1  0  0  0  0
  2 19  1  0  0  0  0
  2 22  1  1  0  0  0
  3  4  1  0  0  0  0
  3 20  1  0  0  0  0
  3 23  1  6  0  0  0
  4  5  1  0  0  0  0
  4  7  1  0  0  0  0
  4 24  1  1  0  0  0
  5  6  1  0  0  0  0
  5 10  1  0  0  0  0
  5 25  1  6  0  0  0
  6  1  1  0  0  0  0
  7 26  1  0  0  0  0
  8  9  2  0  0  0  0
  8 11  1  0  0  0  0
  8 27  1  0  0  0  0
  9 10  1  0  0  0  0
 11 12  2  0  0  0  0
 11 28  1  0  0  0  0
 12 13  1  0  0  0  0
 12 29  1  0  0  0  0
 13 14  2  0  0  0  0
 13 30  1  0  0  0  0
 14  9  1  0  0  0  0
 14 15  1  0  0  0  0
 15 16  1  0  0  0  0
 15 31  1  0  0  0  0
 15 32  1  0  0  0  0
 16 33  1  0  0  0  0
 17 18  1  0  0  0  0
 17 34  1  0  0  0  0
 17 35  1  0  0  0  0
 18 36  1  0  0  0  0
 19 37  1  0  0  0  0
 20 38  1  0  0  0  0
M  END
>  <Mol_ID>
725

>  <Formula>
C13H18O7

>  <MolWeight>
286.27782

>  <Cat>
S2351

>  <Name>
Salicin

>  <Synonyms>
Salicoside,Salicine

>  <Target>
COX

>  <Form>
free base

>  <CAS>
138-52-3

>  <URL>
http://selleckchem.com/products/Salicin(Salicoside,-Salicine).html

$$$$
