SAR407899 hydrochloride
 OpenBabel08302521343D

 34 36  0  0  0  0  0  0  0  0999 V2000
   -1.4051    0.7100   -0.0352 C   0  0  0  0  0  0  0  0  0  0  0  0
   -2.2296   -0.3917   -0.0599 N   0  0  0  0  0  0  0  0  0  0  0  0
   -1.7855   -1.6853   -0.0357 C   0  0  0  0  0  0  0  0  0  0  0  0
   -0.4816   -1.9728    0.0169 C   0  0  0  0  0  0  0  0  0  0  0  0
    0.5126   -0.8876    0.0674 C   0  0  0  0  0  0  0  0  0  0  0  0
    1.8998   -1.1316    0.1553 C   0  0  0  0  0  0  0  0  0  0  0  0
    2.8145   -0.0640    0.2448 C   0  0  0  0  0  0  0  0  0  0  0  0
    2.3297    1.2458    0.1803 C   0  0  0  0  0  0  0  0  0  0  0  0
    0.9593    1.5016    0.0858 C   0  0  0  0  0  0  0  0  0  0  0  0
    0.0555    0.4385    0.0402 C   0  0  0  0  0  0  0  0  0  0  0  0
   -1.8494    1.8514   -0.0693 O   0  0  0  0  0  0  0  0  0  0  0  0
    4.1561   -0.3809    0.3607 O   0  0  0  0  0  0  0  0  0  0  0  0
    7.8955    0.5684    1.1914 N   0  0  0  0  0  0  0  0  0  0  0  0
    7.2172    1.1107    0.0169 C   0  0  0  0  0  0  0  0  0  0  0  0
    5.7651    1.5042    0.2904 C   0  0  0  0  0  0  0  0  0  0  0  0
    4.9468    0.5350    1.1610 C   0  0  0  0  0  0  0  0  0  0  0  0
    5.8001   -0.2421    2.1724 C   0  0  0  0  0  0  0  0  0  0  0  0
    7.1908   -0.6141    1.6779 C   0  0  0  0  0  0  0  0  0  0  0  0
   -3.2189   -0.1917   -0.1087 H   0  0  0  0  0  0  0  0  0  0  0  0
   -2.5478   -2.4562   -0.0644 H   0  0  0  0  0  0  0  0  0  0  0  0
   -0.1338   -3.0029    0.0305 H   0  0  0  0  0  0  0  0  0  0  0  0
    2.2744   -2.1523    0.1778 H   0  0  0  0  0  0  0  0  0  0  0  0
    3.0016    2.0995    0.2024 H   0  0  0  0  0  0  0  0  0  0  0  0
    0.5967    2.5266    0.0522 H   0  0  0  0  0  0  0  0  0  0  0  0
    8.8481    0.3114    0.9373 H   0  0  0  0  0  0  0  0  0  0  0  0
    7.2823    0.4058   -0.8196 H   0  0  0  0  0  0  0  0  0  0  0  0
    7.7619    2.0110   -0.2948 H   0  0  0  0  0  0  0  0  0  0  0  0
    5.2699    1.6742   -0.6728 H   0  0  0  0  0  0  0  0  0  0  0  0
    5.7855    2.4703    0.8113 H   0  0  0  0  0  0  0  0  0  0  0  0
    4.2658    1.1313    1.7815 H   0  0  0  0  0  0  0  0  0  0  0  0
    5.9272    0.3937    3.0595 H   0  0  0  0  0  0  0  0  0  0  0  0
    5.2790   -1.1483    2.5010 H   0  0  0  0  0  0  0  0  0  0  0  0
    7.7610   -1.0268    2.5187 H   0  0  0  0  0  0  0  0  0  0  0  0
    7.1495   -1.3933    0.9083 H   0  0  0  0  0  0  0  0  0  0  0  0
  1  2  1  0  0  0  0
  1 10  1  0  0  0  0
  1 11  2  0  0  0  0
  2  3  1  0  0  0  0
  2 19  1  0  0  0  0
  3  4  2  0  0  0  0
  3 20  1  0  0  0  0
  4  5  1  0  0  0  0
  4 21  1  0  0  0  0
  5  6  1  0  0  0  0
  5 10  2  0  0  0  0
  6  7  2  0  0  0  0
  6 22  1  0  0  0  0
  7  8  1  0  0  0  0
  7 12  1  0  0  0  0
  8  9  2  0  0  0  0
  8 23  1  0  0  0  0
  9 10  1  0  0  0  0
  9 24  1  0  0  0  0
 12 16  1  0  0  0  0
 13 14  1  0  0  0  0
 13 18  1  0  0  0  0
 13 25  1  0  0  0  0
 14 15  1  0  0  0  0
 14 26  1  0  0  0  0
 14 27  1  0  0  0  0
 15 16  1  0  0  0  0
 15 28  1  0  0  0  0
 15 29  1  0  0  0  0
 16 17  1  0  0  0  0
 16 30  1  0  0  0  0
 17 18  1  0  0  0  0
 17 31  1  0  0  0  0
 17 32  1  0  0  0  0
 18 33  1  0  0  0  0
 18 34  1  0  0  0  0
M  END
>  <Mol_ID>
6448

>  <Formula>
C14H17ClN2O2

>  <MolWeight>
280.74998

>  <Cat>
E2385

>  <Name>
SAR407899 hydrochloride

>  <Target>
Rho

>  <Form>
hydrochloride

>  <CAS>
923262-96-8

>  <URL>
http://www.selleckchem.com/products/sar407899-hydrochloride.html

$$$$
