SAR405
 OpenBabel08302521343D

 51 54  0  0  0  0  0  0  0  0999 V2000
   -1.3815   -1.0261    2.0083 C   0  0  0  0  0  0  0  0  0  0  0  0
   -0.8759    0.2157    2.5308 O   0  0  0  0  0  0  0  0  0  0  0  0
   -1.3372    1.3289    1.7434 C   0  0  0  0  0  0  0  0  0  0  0  0
   -0.9448    1.2030    0.2558 C   0  0  0  0  0  0  0  0  0  0  0  0
   -1.4413   -0.0851   -0.2901 N   0  0  0  0  0  0  0  0  0  0  0  0
   -0.9404   -1.2176    0.5416 C   0  0  2  0  0  0  0  0  0  0  0  0
   -2.5874   -0.0755   -1.1013 C   0  0  0  0  0  0  0  0  0  0  0  0
   -2.5560    0.5955   -2.3037 N   0  0  0  0  0  0  0  0  0  0  0  0
   -3.5757    0.5858   -3.1151 C   0  0  0  0  0  0  0  0  0  0  0  0
   -4.7622   -0.0290   -2.7543 N   0  0  0  0  0  0  0  0  0  0  0  0
   -4.8748   -0.7198   -1.5699 C   0  0  0  0  0  0  0  0  0  0  0  0
   -3.6961   -0.7158   -0.7085 C   0  0  0  0  0  0  0  0  0  0  0  0
   -3.5136    1.2239   -4.3575 N   0  0  0  0  0  0  0  0  0  0  0  0
   -4.5362    0.9283   -5.4034 C   0  0  1  0  0  0  0  0  0  0  0  0
   -5.8922    1.0071   -4.7066 C   0  0  0  0  0  0  0  0  0  0  0  0
   -5.9307   -0.0332   -3.6117 C   0  0  0  0  0  0  0  0  0  0  0  0
   -2.3897    2.1177   -4.6572 C   0  0  0  0  0  0  0  0  0  0  0  0
   -2.7401    3.5617   -4.3816 C   0  0  0  0  0  0  0  0  0  0  0  0
   -2.1938    4.5799   -5.1583 C   0  0  0  0  0  0  0  0  0  0  0  0
   -2.3857    5.9013   -4.9332 N   0  0  0  0  0  0  0  0  0  0  0  0
   -3.1575    6.2326   -3.8771 C   0  0  0  0  0  0  0  0  0  0  0  0
   -3.7561    5.3053   -3.0445 C   0  0  0  0  0  0  0  0  0  0  0  0
   -3.5364    3.9557   -3.2993 C   0  0  0  0  0  0  0  0  0  0  0  0
   -4.5998    1.7147   -6.7445 C   0  0  0  0  0  0  0  0  0  0  0  0
   -3.6305    2.6275   -6.9298 F   0  0  0  0  0  0  0  0  0  0  0  0
   -4.4983    0.8388   -7.7810 F   0  0  0  0  0  0  0  0  0  0  0  0
   -5.7807    2.3581   -6.9061 F   0  0  0  0  0  0  0  0  0  0  0  0
   -5.8773   -1.3334   -1.2088 O   0  0  0  0  0  0  0  0  0  0  0  0
   -1.2537   -2.6110   -0.0020 C   0  0  0  0  0  0  0  0  0  0  0  0
   -0.9794   -1.8291    2.6355 H   0  0  0  0  0  0  0  0  0  0  0  0
   -2.4717   -1.0359    2.1188 H   0  0  0  0  0  0  0  0  0  0  0  0
   -2.4240    1.4105    1.8611 H   0  0  0  0  0  0  0  0  0  0  0  0
   -0.8870    2.2313    2.1694 H   0  0  0  0  0  0  0  0  0  0  0  0
   -1.3362    2.0598   -0.3036 H   0  0  0  0  0  0  0  0  0  0  0  0
    0.1480    1.2192    0.1660 H   0  0  0  0  0  0  0  0  0  0  0  0
    0.1555   -1.1271    0.5319 H   0  0  0  0  0  0  0  0  0  0  0  0
   -3.7876   -1.2427    0.2235 H   0  0  0  0  0  0  0  0  0  0  0  0
   -4.3641   -0.1180   -5.6954 H   0  0  0  0  0  0  0  0  0  0  0  0
   -6.0315    2.0083   -4.2774 H   0  0  0  0  0  0  0  0  0  0  0  0
   -6.7210    0.8253   -5.3993 H   0  0  0  0  0  0  0  0  0  0  0  0
   -6.8266    0.1219   -2.9984 H   0  0  0  0  0  0  0  0  0  0  0  0
   -6.0113   -1.0385   -4.0430 H   0  0  0  0  0  0  0  0  0  0  0  0
   -1.5039    1.8713   -4.0593 H   0  0  0  0  0  0  0  0  0  0  0  0
   -2.0537    1.9702   -5.6893 H   0  0  0  0  0  0  0  0  0  0  0  0
   -1.5624    4.3606   -6.0160 H   0  0  0  0  0  0  0  0  0  0  0  0
   -3.2799    7.2980   -3.7062 H   0  0  0  0  0  0  0  0  0  0  0  0
   -4.3660    5.6217   -2.2061 H   0  0  0  0  0  0  0  0  0  0  0  0
   -3.9793    3.2184   -2.6358 H   0  0  0  0  0  0  0  0  0  0  0  0
   -0.3207   -3.1766   -0.1139 H   0  0  0  0  0  0  0  0  0  0  0  0
   -1.8836   -3.1838    0.6871 H   0  0  0  0  0  0  0  0  0  0  0  0
   -1.7286   -2.6094   -0.9860 H   0  0  0  0  0  0  0  0  0  0  0  0
  1  2  1  0  0  0  0
  1 30  1  0  0  0  0
  1 31  1  0  0  0  0
  2  3  1  0  0  0  0
  3  4  1  0  0  0  0
  3 32  1  0  0  0  0
  3 33  1  0  0  0  0
  4  5  1  0  0  0  0
  4 34  1  0  0  0  0
  4 35  1  0  0  0  0
  5  6  1  0  0  0  0
  5  7  1  0  0  0  0
  6  1  1  0  0  0  0
  6 36  1  6  0  0  0
  6 29  1  0  0  0  0
  7  8  1  0  0  0  0
  8  9  2  0  0  0  0
  9 10  1  0  0  0  0
  9 13  1  0  0  0  0
 10 11  1  0  0  0  0
 11 12  1  0  0  0  0
 11 28  2  0  0  0  0
 12  7  2  0  0  0  0
 12 37  1  0  0  0  0
 13 14  1  0  0  0  0
 13 17  1  0  0  0  0
 14 15  1  0  0  0  0
 14 38  1  6  0  0  0
 14 24  1  0  0  0  0
 15 16  1  0  0  0  0
 15 39  1  0  0  0  0
 15 40  1  0  0  0  0
 16 10  1  0  0  0  0
 16 41  1  0  0  0  0
 16 42  1  0  0  0  0
 17 18  1  0  0  0  0
 17 43  1  0  0  0  0
 17 44  1  0  0  0  0
 18 19  2  0  0  0  0
 19 20  1  0  0  0  0
 19 45  1  0  0  0  0
 20 21  2  0  0  0  0
 21 22  1  0  0  0  0
 21 46  1  0  0  0  0
 22 23  2  0  0  0  0
 22 47  1  0  0  0  0
 23 18  1  0  0  0  0
 23 48  1  0  0  0  0
 24 25  1  0  0  0  0
 24 26  1  0  0  0  0
 24 27  1  0  0  0  0
 29 49  1  0  0  0  0
 29 50  1  0  0  0  0
 29 51  1  0  0  0  0
M  END
>  <Mol_ID>
6581

>  <Formula>
C19H21ClF3N5O2

>  <MolWeight>
443.8505496

>  <Cat>
S7682

>  <Name>
SAR405

>  <Synonyms>
N/A

>  <Target>
Autophagy,PI3K

>  <Form>
Free base

>  <CAS>
1523406-39-4

>  <URL>
http://www.selleckchem.com/products/sar405.html

$$$$
