SB-269970 HCl.cdx
 OpenBabel08302521593D

 52 54  0  0  0  0  0  0  0  0999 V2000
   -1.1262    0.7427    0.1045 N   0  0  0  0  0  0  0  0  0  0  0  0
   -0.6954   -0.5931   -0.4361 C   0  0  2  0  0  0  0  0  0  0  0  0
    0.7775   -0.7001   -0.0472 C   0  0  0  0  0  0  0  0  0  0  0  0
    1.3082    0.7178   -0.1332 C   0  0  0  0  0  0  0  0  0  0  0  0
    0.0988    1.6271    0.0424 C   0  0  0  0  0  0  0  0  0  0  0  0
   -0.9361   -0.7821   -1.9652 C   0  0  0  0  0  0  0  0  0  0  0  0
   -0.1306    0.0720   -2.9872 C   0  0  0  0  0  0  0  0  0  0  0  0
   -0.2228   -0.3700   -4.3995 N   0  0  0  0  0  0  0  0  0  0  0  0
    0.3230   -1.7140   -4.6574 C   0  0  0  0  0  0  0  0  0  0  0  0
    1.8475   -1.7927   -4.5275 C   0  0  0  0  0  0  0  0  0  0  0  0
    2.5115   -0.8642   -5.5465 C   0  0  3  0  0  0  0  0  0  0  0  0
    1.9553    0.5526   -5.3949 C   0  0  0  0  0  0  0  0  0  0  0  0
    0.4114    0.5839   -5.3411 C   0  0  0  0  0  0  0  0  0  0  0  0
    4.0376   -0.9000   -5.3829 C   0  0  0  0  0  0  0  0  0  0  0  0
   -1.7499    0.7703    1.7415 S   0  0  0  0  0  0  0  0  0  0  0  0
   -0.8450   -0.0151    2.5571 O   0  0  0  0  0  0  0  0  0  0  0  0
   -2.0021    2.1595    2.0731 O   0  0  0  0  0  0  0  0  0  0  0  0
   -3.3327   -0.0412    1.7599 C   0  0  0  0  0  0  0  0  0  0  0  0
   -3.4683   -1.2848    2.3919 C   0  0  0  0  0  0  0  0  0  0  0  0
   -4.7446   -1.8021    2.6095 C   0  0  0  0  0  0  0  0  0  0  0  0
   -5.8793   -1.0894    2.2386 C   0  0  0  0  0  0  0  0  0  0  0  0
   -5.7455    0.1637    1.6409 C   0  0  0  0  0  0  0  0  0  0  0  0
   -4.4729    0.6931    1.4052 C   0  0  0  0  0  0  0  0  0  0  0  0
   -4.9349   -3.0067    3.2209 O   0  0  0  0  0  0  0  0  0  0  0  0
   -1.2656   -1.3867    0.0610 H   0  0  0  0  0  0  0  0  0  0  0  0
    0.8642   -1.0521    0.9876 H   0  0  0  0  0  0  0  0  0  0  0  0
    1.3409   -1.4041   -0.6666 H   0  0  0  0  0  0  0  0  0  0  0  0
    2.0686    0.9019    0.6328 H   0  0  0  0  0  0  0  0  0  0  0  0
    1.7991    0.9188   -1.0885 H   0  0  0  0  0  0  0  0  0  0  0  0
    0.2304    2.2379    0.9407 H   0  0  0  0  0  0  0  0  0  0  0  0
   -0.0108    2.3216   -0.7976 H   0  0  0  0  0  0  0  0  0  0  0  0
   -0.7075   -1.8373   -2.1490 H   0  0  0  0  0  0  0  0  0  0  0  0
   -2.0052   -0.6611   -2.1774 H   0  0  0  0  0  0  0  0  0  0  0  0
   -0.5237    1.0944   -2.9230 H   0  0  0  0  0  0  0  0  0  0  0  0
    0.9211    0.1124   -2.7115 H   0  0  0  0  0  0  0  0  0  0  0  0
    0.0420   -2.0103   -5.6768 H   0  0  0  0  0  0  0  0  0  0  0  0
   -0.1467   -2.4679   -4.0165 H   0  0  0  0  0  0  0  0  0  0  0  0
    2.1710   -2.8290   -4.7008 H   0  0  0  0  0  0  0  0  0  0  0  0
    2.1609   -1.5364   -3.5116 H   0  0  0  0  0  0  0  0  0  0  0  0
    2.2800   -1.2302   -6.5504 H   0  0  0  0  0  0  0  0  0  0  0  0
    2.3574    1.0318   -4.4998 H   0  0  0  0  0  0  0  0  0  0  0  0
    2.2869    1.1624   -6.2522 H   0  0  0  0  0  0  0  0  0  0  0  0
    0.0299    0.3607   -6.3490 H   0  0  0  0  0  0  0  0  0  0  0  0
    0.0734    1.6074   -5.1305 H   0  0  0  0  0  0  0  0  0  0  0  0
    4.4094   -1.9276   -5.4375 H   0  0  0  0  0  0  0  0  0  0  0  0
    4.5263   -0.3229   -6.1720 H   0  0  0  0  0  0  0  0  0  0  0  0
    4.3413   -0.4822   -4.4173 H   0  0  0  0  0  0  0  0  0  0  0  0
   -2.5931   -1.8119    2.7598 H   0  0  0  0  0  0  0  0  0  0  0  0
   -6.8683   -1.4984    2.4388 H   0  0  0  0  0  0  0  0  0  0  0  0
   -6.6337    0.7397    1.3910 H   0  0  0  0  0  0  0  0  0  0  0  0
   -4.3799    1.6976    0.9957 H   0  0  0  0  0  0  0  0  0  0  0  0
   -4.0721   -3.4177    3.3938 H   0  0  0  0  0  0  0  0  0  0  0  0
  1  2  1  0  0  0  0
  1  5  1  0  0  0  0
  1 15  1  0  0  0  0
  2  3  1  0  0  0  0
  2  6  1  0  0  0  0
  2 25  1  1  0  0  0
  3  4  1  0  0  0  0
  3 26  1  0  0  0  0
  3 27  1  0  0  0  0
  4  5  1  0  0  0  0
  4 28  1  0  0  0  0
  4 29  1  0  0  0  0
  5 30  1  0  0  0  0
  5 31  1  0  0  0  0
  6  7  1  0  0  0  0
  6 32  1  0  0  0  0
  6 33  1  0  0  0  0
  7  8  1  0  0  0  0
  7 34  1  0  0  0  0
  7 35  1  0  0  0  0
  8  9  1  0  0  0  0
  8 13  1  0  0  0  0
  9 10  1  0  0  0  0
  9 36  1  0  0  0  0
  9 37  1  0  0  0  0
 10 11  1  0  0  0  0
 10 38  1  0  0  0  0
 10 39  1  0  0  0  0
 11 12  1  0  0  0  0
 11 14  1  0  0  0  0
 11 40  1  0  0  0  0
 12 13  1  0  0  0  0
 12 41  1  0  0  0  0
 12 42  1  0  0  0  0
 13 43  1  0  0  0  0
 13 44  1  0  0  0  0
 14 45  1  0  0  0  0
 14 46  1  0  0  0  0
 14 47  1  0  0  0  0
 15 16  2  0  0  0  0
 15 17  2  0  0  0  0
 15 18  1  0  0  0  0
 18 19  2  0  0  0  0
 18 23  1  0  0  0  0
 19 20  1  0  0  0  0
 19 48  1  0  0  0  0
 20 21  2  0  0  0  0
 20 24  1  0  0  0  0
 21 22  1  0  0  0  0
 21 49  1  0  0  0  0
 22 23  2  0  0  0  0
 22 50  1  0  0  0  0
 23 51  1  0  0  0  0
 24 52  1  0  0  0  0
M  END
>  <Mol_ID>
1021

>  <Formula>
C18H29ClN2O3S

>  <MolWeight>
388.95246

>  <Cat>
S2849

>  <Name>
SB269970 HCl

>  <Synonyms>
N/A

>  <Target>
5-HT Receptor

>  <Form>
Hydrochloride

>  <CAS>
261901-57-9

>  <URL>
http://selleckchem.com/products/sb-269970-hcl.html

$$$$
