SB 590885.cdx
 OpenBabel08302521353D

 61 65  0  0  0  0  0  0  0  0999 V2000
   -1.1640   -0.1229   -0.0136 N   0  0  0  0  0  0  0  0  0  0  0  0
   -0.3520   -1.2257    0.0331 C   0  0  0  0  0  0  0  0  0  0  0  0
    0.9860   -0.8555   -0.0248 C   0  0  0  0  0  0  0  0  0  0  0  0
    0.9351    0.5257   -0.0307 N   0  0  0  0  0  0  0  0  0  0  0  0
   -0.3791    0.9267   -0.0609 C   0  0  0  0  0  0  0  0  0  0  0  0
    2.2491   -1.5944   -0.1424 C   0  0  0  0  0  0  0  0  0  0  0  0
   -0.9209   -2.5652    0.0754 C   0  0  0  0  0  0  0  0  0  0  0  0
   -2.1452   -2.8056   -0.5486 C   0  0  0  0  0  0  0  0  0  0  0  0
   -2.6612   -4.0925   -0.5256 C   0  0  0  0  0  0  0  0  0  0  0  0
   -2.0399   -5.1346    0.0627 N   0  0  0  0  0  0  0  0  0  0  0  0
   -0.8724   -4.8735    0.6812 C   0  0  0  0  0  0  0  0  0  0  0  0
   -0.2907   -3.6185    0.7392 C   0  0  0  0  0  0  0  0  0  0  0  0
    3.4233   -1.1344    0.4930 C   0  0  0  0  0  0  0  0  0  0  0  0
    4.6267   -1.8424    0.3868 C   0  0  0  0  0  0  0  0  0  0  0  0
    4.6217   -3.0154   -0.3448 C   0  0  0  0  0  0  0  0  0  0  0  0
    3.4838   -3.4946   -0.9743 C   0  0  0  0  0  0  0  0  0  0  0  0
    2.3008   -2.7781   -0.8997 C   0  0  0  0  0  0  0  0  0  0  0  0
    5.7123   -3.9324   -0.6337 C   0  0  0  0  0  0  0  0  0  0  0  0
    5.2059   -5.0669   -1.4951 C   0  0  0  0  0  0  0  0  0  0  0  0
    3.7084   -4.7907   -1.6837 C   0  0  0  0  0  0  0  0  0  0  0  0
    6.9241   -3.7561   -0.2132 N   0  0  0  0  0  0  0  0  0  0  0  0
   -0.8304    2.3099   -0.2062 C   0  0  0  0  0  0  0  0  0  0  0  0
   -2.1066    2.5226   -0.7414 C   0  0  0  0  0  0  0  0  0  0  0  0
   -2.6161    3.8081   -0.8899 C   0  0  0  0  0  0  0  0  0  0  0  0
   -1.8837    4.9098   -0.4415 C   0  0  0  0  0  0  0  0  0  0  0  0
   -0.5879    4.7198    0.0385 C   0  0  0  0  0  0  0  0  0  0  0  0
   -0.0651    3.4231    0.1665 C   0  0  0  0  0  0  0  0  0  0  0  0
   -2.3931    6.1878   -0.3916 O   0  0  0  0  0  0  0  0  0  0  0  0
   -3.8170    6.1897   -0.1824 C   0  0  0  0  0  0  0  0  0  0  0  0
   -4.3033    7.4845    0.4862 C   0  0  0  0  0  0  0  0  0  0  0  0
   -5.7708    7.5204    0.6667 N   0  0  0  0  0  0  0  0  0  0  0  0
   -6.2778    6.4557    1.5396 C   0  0  0  0  0  0  0  0  0  0  0  0
   -6.1996    8.8143    1.2050 C   0  0  0  0  0  0  0  0  0  0  0  0
    7.7507   -4.7887   -0.6716 O   0  0  0  0  0  0  0  0  0  0  0  0
    1.7296    1.1419   -0.1146 H   0  0  0  0  0  0  0  0  0  0  0  0
   -2.6877   -2.0132   -1.0487 H   0  0  0  0  0  0  0  0  0  0  0  0
   -3.6130   -4.3209   -0.9944 H   0  0  0  0  0  0  0  0  0  0  0  0
   -0.3898   -5.7278    1.1485 H   0  0  0  0  0  0  0  0  0  0  0  0
    0.6389   -3.4825    1.2752 H   0  0  0  0  0  0  0  0  0  0  0  0
    3.4113   -0.2245    1.0897 H   0  0  0  0  0  0  0  0  0  0  0  0
    5.5340   -1.4879    0.8651 H   0  0  0  0  0  0  0  0  0  0  0  0
    1.4239   -3.1500   -1.4238 H   0  0  0  0  0  0  0  0  0  0  0  0
    5.3729   -6.0279   -0.9985 H   0  0  0  0  0  0  0  0  0  0  0  0
    5.7268   -5.0665   -2.4580 H   0  0  0  0  0  0  0  0  0  0  0  0
    3.1069   -5.5894   -1.2354 H   0  0  0  0  0  0  0  0  0  0  0  0
    3.4553   -4.7051   -2.7447 H   0  0  0  0  0  0  0  0  0  0  0  0
   -2.7241    1.6742   -1.0345 H   0  0  0  0  0  0  0  0  0  0  0  0
   -3.6038    3.9164   -1.3247 H   0  0  0  0  0  0  0  0  0  0  0  0
    0.0031    5.5755    0.3562 H   0  0  0  0  0  0  0  0  0  0  0  0
    0.9235    3.3036    0.5997 H   0  0  0  0  0  0  0  0  0  0  0  0
   -4.3170    6.0657   -1.1497 H   0  0  0  0  0  0  0  0  0  0  0  0
   -4.0765    5.3576    0.4818 H   0  0  0  0  0  0  0  0  0  0  0  0
   -3.7792    7.6304    1.4393 H   0  0  0  0  0  0  0  0  0  0  0  0
   -3.9987    8.3171   -0.1622 H   0  0  0  0  0  0  0  0  0  0  0  0
   -5.9374    6.5741    2.5751 H   0  0  0  0  0  0  0  0  0  0  0  0
   -7.3736    6.4560    1.5338 H   0  0  0  0  0  0  0  0  0  0  0  0
   -5.9879    5.4579    1.2001 H   0  0  0  0  0  0  0  0  0  0  0  0
   -6.0061    8.8995    2.2810 H   0  0  0  0  0  0  0  0  0  0  0  0
   -5.6979    9.6489    0.7047 H   0  0  0  0  0  0  0  0  0  0  0  0
   -7.2749    8.9449    1.0388 H   0  0  0  0  0  0  0  0  0  0  0  0
    8.6194   -4.5399   -0.3056 H   0  0  0  0  0  0  0  0  0  0  0  0
  1  2  1  0  0  0  0
  2  3  2  0  0  0  0
  2  7  1  0  0  0  0
  3  4  1  0  0  0  0
  3  6  1  0  0  0  0
  4  5  1  0  0  0  0
  4 35  1  0  0  0  0
  5  1  2  0  0  0  0
  5 22  1  0  0  0  0
  6 13  2  0  0  0  0
  7  8  2  0  0  0  0
  8  9  1  0  0  0  0
  8 36  1  0  0  0  0
  9 10  2  0  0  0  0
  9 37  1  0  0  0  0
 10 11  1  0  0  0  0
 11 12  2  0  0  0  0
 11 38  1  0  0  0  0
 12  7  1  0  0  0  0
 12 39  1  0  0  0  0
 13 14  1  0  0  0  0
 13 40  1  0  0  0  0
 14 15  2  0  0  0  0
 14 41  1  0  0  0  0
 15 16  1  0  0  0  0
 15 18  1  0  0  0  0
 16 17  2  0  0  0  0
 17  6  1  0  0  0  0
 17 42  1  0  0  0  0
 18 19  1  0  0  0  0
 18 21  2  0  0  0  0
 19 20  1  0  0  0  0
 19 43  1  0  0  0  0
 19 44  1  0  0  0  0
 20 16  1  0  0  0  0
 20 45  1  0  0  0  0
 20 46  1  0  0  0  0
 21 34  1  0  0  0  0
 22 23  2  0  0  0  0
 23 24  1  0  0  0  0
 23 47  1  0  0  0  0
 24 25  2  0  0  0  0
 24 48  1  0  0  0  0
 25 26  1  0  0  0  0
 25 28  1  0  0  0  0
 26 27  2  0  0  0  0
 26 49  1  0  0  0  0
 27 22  1  0  0  0  0
 27 50  1  0  0  0  0
 28 29  1  0  0  0  0
 29 30  1  0  0  0  0
 29 51  1  0  0  0  0
 29 52  1  0  0  0  0
 30 31  1  0  0  0  0
 30 53  1  0  0  0  0
 30 54  1  0  0  0  0
 31 32  1  0  0  0  0
 31 33  1  0  0  0  0
 32 55  1  0  0  0  0
 32 56  1  0  0  0  0
 32 57  1  0  0  0  0
 33 58  1  0  0  0  0
 33 59  1  0  0  0  0
 33 60  1  0  0  0  0
 34 61  1  0  0  0  0
M  END
>  <Mol_ID>
651

>  <Formula>
C27H27N5O2

>  <MolWeight>
453.53558

>  <Cat>
S2220

>  <Name>
SB590885

>  <Synonyms>
N/A

>  <Target>
Raf

>  <Form>
free base

>  <CAS>
405554-55-4

>  <URL>
http://selleckchem.com/products/SB590885.html

$$$$
