SBP-7455
 OpenBabel08302521313D

 42 44  0  0  0  0  0  0  0  0999 V2000
    3.2568    1.3220   -0.7687 F   0  0  0  0  0  0  0  0  0  0  0  0
    2.2932    0.2762    0.8626 F   0  0  0  0  0  0  0  0  0  0  0  0
    1.2042    0.6455   -0.9791 F   0  0  0  0  0  0  0  0  0  0  0  0
    2.6095   -9.2078   -3.9664 O   0  0  0  0  0  0  0  0  0  0  0  0
    0.9937   -9.4779   -1.5536 O   0  0  0  0  0  0  0  0  0  0  0  0
    4.8340   -0.1480   -2.1611 N   0  0  0  0  0  0  0  0  0  0  0  0
    4.3543   -2.4826   -2.1962 N   0  0  0  0  0  0  0  0  0  0  0  0
    2.4551   -3.3717   -1.1390 N   0  0  0  0  0  0  0  0  0  0  0  0
    3.8989   -4.7788   -2.3742 N   0  0  0  0  0  0  0  0  0  0  0  0
    6.2532   -0.3805   -2.4565 C   0  0  0  0  0  0  0  0  0  0  0  0
    7.2995   -0.1234   -1.4066 C   0  0  0  0  0  0  0  0  0  0  0  0
    7.2092    0.7736   -2.6069 C   0  0  0  0  0  0  0  0  0  0  0  0
    4.0252   -1.2388   -1.7550 C   0  0  0  0  0  0  0  0  0  0  0  0
    2.8778   -1.0288   -1.0170 C   0  0  0  0  0  0  0  0  0  0  0  0
    2.1279   -2.1435   -0.7309 C   0  0  0  0  0  0  0  0  0  0  0  0
    2.4227    0.2820   -0.4947 C   0  0  0  0  0  0  0  0  0  0  0  0
    3.5672   -3.5180   -1.8722 C   0  0  0  0  0  0  0  0  0  0  0  0
    3.2790   -6.0171   -2.1602 C   0  0  0  0  0  0  0  0  0  0  0  0
    3.3237   -7.0156   -3.1465 C   0  0  0  0  0  0  0  0  0  0  0  0
    2.5260   -6.2725   -1.0107 C   0  0  0  0  0  0  0  0  0  0  0  0
    2.5962   -8.2195   -3.0182 C   0  0  0  0  0  0  0  0  0  0  0  0
    1.8084   -8.4251   -1.8715 C   0  0  0  0  0  0  0  0  0  0  0  0
    1.7980   -7.4503   -0.8723 C   0  0  0  0  0  0  0  0  0  0  0  0
    3.3651   -9.0098   -5.1517 C   0  0  0  0  0  0  0  0  0  0  0  0
    0.8638  -10.5505   -2.4695 C   0  0  0  0  0  0  0  0  0  0  0  0
    4.6645    0.6915   -1.6074 H   0  0  0  0  0  0  0  0  0  0  0  0
    4.5871   -4.6990   -3.1090 H   0  0  0  0  0  0  0  0  0  0  0  0
    6.4155   -1.2170   -3.1363 H   0  0  0  0  0  0  0  0  0  0  0  0
    6.9928    0.2900   -0.4531 H   0  0  0  0  0  0  0  0  0  0  0  0
    8.1347   -0.8089   -1.3448 H   0  0  0  0  0  0  0  0  0  0  0  0
    7.9794    0.6892   -3.3649 H   0  0  0  0  0  0  0  0  0  0  0  0
    6.8598    1.7867   -2.4446 H   0  0  0  0  0  0  0  0  0  0  0  0
    1.2167   -2.0887   -0.1445 H   0  0  0  0  0  0  0  0  0  0  0  0
    3.9189   -6.8244   -4.0323 H   0  0  0  0  0  0  0  0  0  0  0  0
    2.4842   -5.5533   -0.1992 H   0  0  0  0  0  0  0  0  0  0  0  0
    1.1996   -7.6006    0.0258 H   0  0  0  0  0  0  0  0  0  0  0  0
    3.0021   -8.1441   -5.7146 H   0  0  0  0  0  0  0  0  0  0  0  0
    4.4325   -8.9244   -4.9275 H   0  0  0  0  0  0  0  0  0  0  0  0
    3.2275   -9.8947   -5.7816 H   0  0  0  0  0  0  0  0  0  0  0  0
    0.5003  -10.2112   -3.4442 H   0  0  0  0  0  0  0  0  0  0  0  0
    1.8016  -11.1084   -2.5463 H   0  0  0  0  0  0  0  0  0  0  0  0
    0.1077  -11.2330   -2.0697 H   0  0  0  0  0  0  0  0  0  0  0  0
  1 16  1  0  0  0  0
  2 16  1  0  0  0  0
  3 16  1  0  0  0  0
  4 21  1  0  0  0  0
  4 24  1  0  0  0  0
  5 22  1  0  0  0  0
  5 25  1  0  0  0  0
  6 10  1  0  0  0  0
  6 13  1  0  0  0  0
  6 26  1  0  0  0  0
  7 13  2  0  0  0  0
  7 17  1  0  0  0  0
  8 15  1  0  0  0  0
  8 17  2  0  0  0  0
  9 17  1  0  0  0  0
  9 18  1  0  0  0  0
  9 27  1  0  0  0  0
 10 11  1  0  0  0  0
 10 12  1  0  0  0  0
 10 28  1  0  0  0  0
 11 12  1  0  0  0  0
 11 29  1  0  0  0  0
 11 30  1  0  0  0  0
 12 31  1  0  0  0  0
 12 32  1  0  0  0  0
 13 14  1  0  0  0  0
 14 15  2  0  0  0  0
 14 16  1  0  0  0  0
 15 33  1  0  0  0  0
 18 19  2  0  0  0  0
 18 20  1  0  0  0  0
 19 21  1  0  0  0  0
 19 34  1  0  0  0  0
 20 23  2  0  0  0  0
 20 35  1  0  0  0  0
 21 22  2  0  0  0  0
 22 23  1  0  0  0  0
 23 36  1  0  0  0  0
 24 37  1  0  0  0  0
 24 38  1  0  0  0  0
 24 39  1  0  0  0  0
 25 40  1  0  0  0  0
 25 41  1  0  0  0  0
 25 42  1  0  0  0  0
M  END
>  <Mol_ID>
5868

>  <Formula>
C16H17F3N4O2

>  <MolWeight>
354.3269896

>  <Cat>
S3393

>  <Name>
SBP-7455

>  <Synonyms>
N/A

>  <Target>
ULK

>  <Form>
Free Base

>  <CAS>
1884222-74-5

>  <URL>
http://www.selleckchem.com/products/sbp-7455.html

$$$$
