SC144.cdx
 OpenBabel08302519573D

 35 38  0  0  0  0  0  0  0  0999 V2000
   -1.7235    1.6941   -0.0449 C   0  0  0  0  0  0  0  0  0  0  0  0
   -3.0432    1.3000   -0.0587 C   0  0  0  0  0  0  0  0  0  0  0  0
   -3.0650   -0.1139   -0.0743 C   0  0  0  0  0  0  0  0  0  0  0  0
   -1.7517   -0.5494   -0.0581 C   0  0  0  0  0  0  0  0  0  0  0  0
   -0.9402    0.5609   -0.0333 N   0  0  0  0  0  0  0  0  0  0  0  0
   -1.1876   -1.8851   -0.0018 C   0  0  0  0  0  0  0  0  0  0  0  0
    0.1169   -2.0234    0.0707 N   0  0  0  0  0  0  0  0  0  0  0  0
    0.9468   -0.8830    0.0383 C   0  0  0  0  0  0  0  0  0  0  0  0
    0.4569    0.4346    0.0037 C   0  0  0  0  0  0  0  0  0  0  0  0
    2.3272   -1.0756    0.0388 C   0  0  0  0  0  0  0  0  0  0  0  0
    3.1814    0.0219    0.0279 C   0  0  0  0  0  0  0  0  0  0  0  0
    2.6883    1.3241    0.0171 C   0  0  0  0  0  0  0  0  0  0  0  0
    1.3124    1.5411    0.0033 C   0  0  0  0  0  0  0  0  0  0  0  0
    4.5066   -0.1758    0.0303 F   0  0  0  0  0  0  0  0  0  0  0  0
   -2.0093   -2.9958    0.0120 N   0  0  0  0  0  0  0  0  0  0  0  0
   -1.4195   -4.2328    0.3199 N   0  0  0  0  0  0  0  0  0  0  0  0
   -2.2819   -5.2596    0.6638 C   0  0  0  0  0  0  0  0  0  0  0  0
   -3.4875   -5.2468    0.4230 O   0  0  0  0  0  0  0  0  0  0  0  0
   -1.6541   -6.4147    1.3596 C   0  0  0  0  0  0  0  0  0  0  0  0
   -2.4494   -7.4628    1.8054 C   0  0  0  0  0  0  0  0  0  0  0  0
   -1.9343   -8.5504    2.4356 N   0  0  0  0  0  0  0  0  0  0  0  0
   -0.5917   -8.5427    2.5954 C   0  0  0  0  0  0  0  0  0  0  0  0
    0.2033   -7.4954    2.1533 C   0  0  0  0  0  0  0  0  0  0  0  0
   -0.3013   -6.4014    1.5306 N   0  0  0  0  0  0  0  0  0  0  0  0
   -1.2926    2.6834   -0.0187 H   0  0  0  0  0  0  0  0  0  0  0  0
   -3.8988    1.9665   -0.0464 H   0  0  0  0  0  0  0  0  0  0  0  0
   -3.9447   -0.7455   -0.0682 H   0  0  0  0  0  0  0  0  0  0  0  0
    2.7391   -2.0794    0.0455 H   0  0  0  0  0  0  0  0  0  0  0  0
    3.3824    2.1594    0.0162 H   0  0  0  0  0  0  0  0  0  0  0  0
    0.9407    2.5609   -0.0130 H   0  0  0  0  0  0  0  0  0  0  0  0
   -2.6923   -3.0511   -0.7471 H   0  0  0  0  0  0  0  0  0  0  0  0
   -0.4727   -4.1934    0.7045 H   0  0  0  0  0  0  0  0  0  0  0  0
   -3.5264   -7.4629    1.6706 H   0  0  0  0  0  0  0  0  0  0  0  0
   -0.1671   -9.4100    3.0911 H   0  0  0  0  0  0  0  0  0  0  0  0
    1.2798   -7.5136    2.2879 H   0  0  0  0  0  0  0  0  0  0  0  0
  1  2  2  0  0  0  0
  1 25  1  0  0  0  0
  2  3  1  0  0  0  0
  2 26  1  0  0  0  0
  3  4  2  0  0  0  0
  3 27  1  0  0  0  0
  4  5  1  0  0  0  0
  4  6  1  0  0  0  0
  5  1  1  0  0  0  0
  6  7  2  0  0  0  0
  6 15  1  0  0  0  0
  7  8  1  0  0  0  0
  8  9  2  0  0  0  0
  8 10  1  0  0  0  0
  9  5  1  0  0  0  0
 10 11  2  0  0  0  0
 10 28  1  0  0  0  0
 11 12  1  0  0  0  0
 11 14  1  0  0  0  0
 12 13  2  0  0  0  0
 12 29  1  0  0  0  0
 13  9  1  0  0  0  0
 13 30  1  0  0  0  0
 15 16  1  0  0  0  0
 15 31  1  0  0  0  0
 16 17  1  0  0  0  0
 16 32  1  0  0  0  0
 17 18  2  0  0  0  0
 17 19  1  0  0  0  0
 19 20  2  0  0  0  0
 20 21  1  0  0  0  0
 20 33  1  0  0  0  0
 21 22  2  0  0  0  0
 22 23  1  0  0  0  0
 22 34  1  0  0  0  0
 23 24  2  0  0  0  0
 23 35  1  0  0  0  0
 24 19  1  0  0  0  0
M  END
>  <Mol_ID>
2248

>  <Formula>
C16H11FN6O

>  <MolWeight>
322.2965432

>  <Cat>
S7124

>  <Name>
SC144

>  <Synonyms>
N/A

>  <Target>
P-gp

>  <Form>
free base

>  <CAS>
895158-95-9

>  <URL>
http://selleckchem.com/products/sc144.html

$$$$
