SCH-23390 hydrochloride
 OpenBabel08302521353D

 38 40  0  0  0  0  0  0  0  0999 V2000
    0.7738    0.0328   -0.0348 O   0  0  0  0  0  0  0  0  0  0  0  0
   -1.8904    6.2556    0.3543 N   0  0  0  0  0  0  0  0  0  0  0  0
    0.3644    4.9953    0.2692 C   0  0  1  0  0  0  0  0  0  0  0  0
   -0.8081    5.6924   -0.4897 C   0  0  0  0  0  0  0  0  0  0  0  0
   -0.0174    3.5650    0.6689 C   0  0  0  0  0  0  0  0  0  0  0  0
   -2.6292    5.2451    1.1306 C   0  0  0  0  0  0  0  0  0  0  0  0
   -1.7948    4.5411    2.2083 C   0  0  0  0  0  0  0  0  0  0  0  0
   -1.0363    3.3693    1.6312 C   0  0  0  0  0  0  0  0  0  0  0  0
    1.7211    5.1550   -0.4351 C   0  0  0  0  0  0  0  0  0  0  0  0
    0.5792    2.4292    0.0924 C   0  0  0  0  0  0  0  0  0  0  0  0
   -2.8309    6.9982   -0.4935 C   0  0  0  0  0  0  0  0  0  0  0  0
   -1.4071    2.0699    2.0186 C   0  0  0  0  0  0  0  0  0  0  0  0
    2.8854    5.2516    0.3484 C   0  0  0  0  0  0  0  0  0  0  0  0
    1.8504    5.2677   -1.8291 C   0  0  0  0  0  0  0  0  0  0  0  0
    0.1935    1.1491    0.4937 C   0  0  0  0  0  0  0  0  0  0  0  0
   -0.7923    0.9616    1.4491 C   0  0  0  0  0  0  0  0  0  0  0  0
    4.1278    5.5147   -0.2348 C   0  0  0  0  0  0  0  0  0  0  0  0
    3.0924    5.5416   -2.4105 C   0  0  0  0  0  0  0  0  0  0  0  0
    4.2265    5.6789   -1.6132 C   0  0  0  0  0  0  0  0  0  0  0  0
    1.5608    0.3071   -0.5318 H   0  0  0  0  0  0  0  0  0  0  0  0
    0.5027    5.5592    1.2038 H   0  0  0  0  0  0  0  0  0  0  0  0
   -1.2250    5.0124   -1.2461 H   0  0  0  0  0  0  0  0  0  0  0  0
   -0.3867    6.5483   -1.0340 H   0  0  0  0  0  0  0  0  0  0  0  0
   -3.4382    5.7624    1.6632 H   0  0  0  0  0  0  0  0  0  0  0  0
   -3.1071    4.5115    0.4669 H   0  0  0  0  0  0  0  0  0  0  0  0
   -2.4746    4.1851    2.9930 H   0  0  0  0  0  0  0  0  0  0  0  0
   -1.1111    5.2333    2.7146 H   0  0  0  0  0  0  0  0  0  0  0  0
    1.3364    2.5389   -0.6782 H   0  0  0  0  0  0  0  0  0  0  0  0
   -3.3185    6.3501   -1.2315 H   0  0  0  0  0  0  0  0  0  0  0  0
   -3.6080    7.4740    0.1146 H   0  0  0  0  0  0  0  0  0  0  0  0
   -2.3182    7.8057   -1.0273 H   0  0  0  0  0  0  0  0  0  0  0  0
   -2.1891    1.9147    2.7586 H   0  0  0  0  0  0  0  0  0  0  0  0
    2.8253    5.1480    1.4299 H   0  0  0  0  0  0  0  0  0  0  0  0
    0.9841    5.1765   -2.4795 H   0  0  0  0  0  0  0  0  0  0  0  0
   -1.0844   -0.0418    1.7457 H   0  0  0  0  0  0  0  0  0  0  0  0
    5.0090    5.6159    0.3910 H   0  0  0  0  0  0  0  0  0  0  0  0
    3.1714    5.6687   -3.4869 H   0  0  0  0  0  0  0  0  0  0  0  0
    5.1860    5.9176   -2.0645 H   0  0  0  0  0  0  0  0  0  0  0  0
  1 15  1  0  0  0  0
  1 20  1  0  0  0  0
  2  4  1  0  0  0  0
  2  6  1  0  0  0  0
  2 11  1  0  0  0  0
  3  4  1  0  0  0  0
  3  5  1  0  0  0  0
  3  9  1  0  0  0  0
  3 21  1  1  0  0  0
  4 22  1  0  0  0  0
  4 23  1  0  0  0  0
  5  8  2  0  0  0  0
  5 10  1  0  0  0  0
  6  7  1  0  0  0  0
  6 24  1  0  0  0  0
  6 25  1  0  0  0  0
  7  8  1  0  0  0  0
  7 26  1  0  0  0  0
  7 27  1  0  0  0  0
  8 12  1  0  0  0  0
  9 13  2  0  0  0  0
  9 14  1  0  0  0  0
 10 15  2  0  0  0  0
 10 28  1  0  0  0  0
 11 29  1  0  0  0  0
 11 30  1  0  0  0  0
 11 31  1  0  0  0  0
 12 16  2  0  0  0  0
 12 32  1  0  0  0  0
 13 17  1  0  0  0  0
 13 33  1  0  0  0  0
 14 18  2  0  0  0  0
 14 34  1  0  0  0  0
 15 16  1  0  0  0  0
 16 35  1  0  0  0  0
 17 19  2  0  0  0  0
 17 36  1  0  0  0  0
 18 19  1  0  0  0  0
 18 37  1  0  0  0  0
 19 38  1  0  0  0  0
M  END
>  <Mol_ID>
6633

>  <Formula>
C17H19Cl2NO

>  <MolWeight>
324.24486

>  <Cat>
S0476

>  <Name>
SCH-23390 hydrochloride

>  <Synonyms>
R-(+)-SCH-23390 hydrochloride, SCH-23390 HCl

>  <Target>
5-HT Receptor,Dopamine Receptor,Potassium Channel

>  <Form>
Hydrochloride

>  <CAS>
125941-87-9

>  <URL>
http://www.selleckchem.com/products/sch23390.html

$$$$
