SCH58261.cdx
 OpenBabel08302520413D

 41 45  0  0  0  0  0  0  0  0999 V2000
   -0.6933   -0.5507    0.1402 C   0  0  0  0  0  0  0  0  0  0  0  0
   -1.2388    0.7118    0.0958 C   0  0  0  0  0  0  0  0  0  0  0  0
   -0.5912    1.9195    0.0068 N   0  0  0  0  0  0  0  0  0  0  0  0
    0.7267    1.8525   -0.0647 C   0  0  0  0  0  0  0  0  0  0  0  0
    1.4015    0.5956   -0.0437 N   0  0  0  0  0  0  0  0  0  0  0  0
    0.7524   -0.6008    0.0435 C   0  0  0  0  0  0  0  0  0  0  0  0
   -1.7259   -1.4579    0.2895 C   0  0  0  0  0  0  0  0  0  0  0  0
   -2.9084   -0.8321    0.3000 N   0  0  0  0  0  0  0  0  0  0  0  0
   -2.5989    0.4871    0.1320 N   0  0  0  0  0  0  0  0  0  0  0  0
    2.7443    0.4165   -0.0542 N   0  0  0  0  0  0  0  0  0  0  0  0
    2.8155   -0.9325   -0.0364 C   0  0  0  0  0  0  0  0  0  0  0  0
    1.5991   -1.5910    0.0196 N   0  0  0  0  0  0  0  0  0  0  0  0
    4.0903   -1.7116   -0.0391 C   0  0  0  0  0  0  0  0  0  0  0  0
   -3.6850    1.4453    0.0463 C   0  0  0  0  0  0  0  0  0  0  0  0
   -3.5103    2.5108   -1.0342 C   0  0  0  0  0  0  0  0  0  0  0  0
   -4.7536    3.3566   -1.1830 C   0  0  0  0  0  0  0  0  0  0  0  0
    5.3565   -1.2035    0.0599 O   0  0  0  0  0  0  0  0  0  0  0  0
    6.2111   -2.2583    0.0681 C   0  0  0  0  0  0  0  0  0  0  0  0
    5.5243   -3.4442   -0.0507 C   0  0  0  0  0  0  0  0  0  0  0  0
    4.1573   -3.0917   -0.1227 C   0  0  0  0  0  0  0  0  0  0  0  0
    1.4858    2.9935   -0.1494 N   0  0  0  0  0  0  0  0  0  0  0  0
   -4.9137    4.5218   -0.4215 C   0  0  0  0  0  0  0  0  0  0  0  0
   -6.0757    5.2865   -0.5358 C   0  0  0  0  0  0  0  0  0  0  0  0
   -7.0896    4.8917   -1.4062 C   0  0  0  0  0  0  0  0  0  0  0  0
   -6.9393    3.7354   -2.1698 C   0  0  0  0  0  0  0  0  0  0  0  0
   -5.7768    2.9700   -2.0581 C   0  0  0  0  0  0  0  0  0  0  0  0
   -1.6849   -2.5338    0.3987 H   0  0  0  0  0  0  0  0  0  0  0  0
   -4.5937    0.8625   -0.1623 H   0  0  0  0  0  0  0  0  0  0  0  0
   -3.8024    1.8858    1.0409 H   0  0  0  0  0  0  0  0  0  0  0  0
   -2.6693    3.1713   -0.7960 H   0  0  0  0  0  0  0  0  0  0  0  0
   -3.2647    2.0474   -1.9982 H   0  0  0  0  0  0  0  0  0  0  0  0
    7.2594   -2.0126    0.1710 H   0  0  0  0  0  0  0  0  0  0  0  0
    5.9513   -4.4368   -0.0765 H   0  0  0  0  0  0  0  0  0  0  0  0
    3.3084   -3.7551   -0.2209 H   0  0  0  0  0  0  0  0  0  0  0  0
    1.0302    3.8383    0.1738 H   0  0  0  0  0  0  0  0  0  0  0  0
    2.4642    2.8956    0.1116 H   0  0  0  0  0  0  0  0  0  0  0  0
   -4.1321    4.8432    0.2643 H   0  0  0  0  0  0  0  0  0  0  0  0
   -6.1907    6.1901    0.0566 H   0  0  0  0  0  0  0  0  0  0  0  0
   -7.9960    5.4855   -1.4904 H   0  0  0  0  0  0  0  0  0  0  0  0
   -7.7298    3.4287   -2.8502 H   0  0  0  0  0  0  0  0  0  0  0  0
   -5.6780    2.0687   -2.6608 H   0  0  0  0  0  0  0  0  0  0  0  0
  1  2  2  0  0  0  0
  1  7  1  0  0  0  0
  2  3  1  0  0  0  0
  3  4  2  0  0  0  0
  4  5  1  0  0  0  0
  4 21  1  0  0  0  0
  5 10  1  0  0  0  0
  6  1  1  0  0  0  0
  6  5  1  0  0  0  0
  7  8  2  0  0  0  0
  7 27  1  0  0  0  0
  8  9  1  0  0  0  0
  9  2  1  0  0  0  0
  9 14  1  0  0  0  0
 10 11  2  0  0  0  0
 11 12  1  0  0  0  0
 11 13  1  0  0  0  0
 12  6  2  0  0  0  0
 13 17  1  0  0  0  0
 14 15  1  0  0  0  0
 14 28  1  0  0  0  0
 14 29  1  0  0  0  0
 15 16  1  0  0  0  0
 15 30  1  0  0  0  0
 15 31  1  0  0  0  0
 16 22  2  0  0  0  0
 17 18  1  0  0  0  0
 18 19  2  0  0  0  0
 18 32  1  0  0  0  0
 19 20  1  0  0  0  0
 19 33  1  0  0  0  0
 20 13  2  0  0  0  0
 20 34  1  0  0  0  0
 21 35  1  0  0  0  0
 21 36  1  0  0  0  0
 22 23  1  0  0  0  0
 22 37  1  0  0  0  0
 23 24  2  0  0  0  0
 23 38  1  0  0  0  0
 24 25  1  0  0  0  0
 24 39  1  0  0  0  0
 25 26  2  0  0  0  0
 25 40  1  0  0  0  0
 26 16  1  0  0  0  0
 26 41  1  0  0  0  0
M  END
>  <Mol_ID>
3916

>  <Formula>
C18H15N7O

>  <MolWeight>
345.358

>  <Cat>
S8104

>  <Name>
SCH58261

>  <Synonyms>
N/A

>  <Target>
Adenosine Receptor

>  <Form>
free base

>  <CAS>
160098-96-4

>  <URL>
http://selleckchem.com/products/sch58261.html

$$$$
