Scopolamine hydrobromide.cdx
 OpenBabel08302521393D

 45 47  0  0  0  0  0  0  0  0999 V2000
    2.0247   -0.6262    0.4752 O   0  0  0  0  0  0  0  0  0  0  0  0
    2.1656   -0.3142   -0.8018 C   0  0  0  0  0  0  0  0  0  0  0  0
    1.6288   -1.3935   -1.6206 C   0  0  1  0  0  0  0  0  0  0  0  0
    2.8451    0.6612   -1.1831 O   0  0  0  0  0  0  0  0  0  0  0  0
    0.5142   -0.9547   -2.4483 C   0  0  0  0  0  0  0  0  0  0  0  0
    2.7955   -1.8294   -2.4640 C   0  0  0  0  0  0  0  0  0  0  0  0
    2.3670   -2.8097   -3.4415 O   0  0  0  0  0  0  0  0  0  0  0  0
    0.7370    0.0100   -3.4453 C   0  0  0  0  0  0  0  0  0  0  0  0
   -0.0189   -0.0802   -4.5498 C   0  0  0  0  0  0  0  0  0  0  0  0
   -1.2134   -0.7939   -4.6023 C   0  0  0  0  0  0  0  0  0  0  0  0
   -1.6017   -1.3082   -3.3683 C   0  0  0  0  0  0  0  0  0  0  0  0
   -0.7341   -1.5862   -2.3811 C   0  0  0  0  0  0  0  0  0  0  0  0
    2.9105    0.2167    3.9619 C   0  0  2  0  0  0  0  0  0  0  0  0
    1.8002    1.2532    4.2311 C   0  0  2  0  0  0  0  0  0  0  0  0
    2.2755    2.5800    3.6272 C   0  0  2  0  0  0  0  0  0  0  0  0
    3.3937    2.0941    2.7001 C   0  0  1  0  0  0  0  0  0  0  0  0
    3.9822    1.0378    3.5761 N   0  0  0  0  0  0  0  0  0  0  0  0
    2.5828    1.4566    1.5041 C   0  0  0  0  0  0  0  0  0  0  0  0
    2.5861   -0.7922    2.8099 C   0  0  0  0  0  0  0  0  0  0  0  0
    2.8193   -0.1290    1.5240 C   0  0  1  0  0  0  0  0  0  0  0  0
    2.3107    2.2828    4.9701 O   0  0  0  0  0  0  0  0  0  0  0  0
    5.3142    0.5340    3.6764 C   0  0  0  0  0  0  0  0  0  0  0  0
  -43.1280    5.4225    0.1644 Br  0  0  0  0  0  0  0  0  0  0  0  0
    1.2889   -2.2457   -0.9714 H   0  0  0  0  0  0  0  0  0  0  0  0
    3.1938   -0.9786   -3.0885 H   0  0  0  0  0  0  0  0  0  0  0  0
    3.6274   -2.2014   -1.8501 H   0  0  0  0  0  0  0  0  0  0  0  0
    1.8505   -3.4644   -2.9056 H   0  0  0  0  0  0  0  0  0  0  0  0
    1.5960    0.6576   -3.3841 H   0  0  0  0  0  0  0  0  0  0  0  0
    0.3101    0.4610   -5.4398 H   0  0  0  0  0  0  0  0  0  0  0  0
   -1.8105   -0.8498   -5.4803 H   0  0  0  0  0  0  0  0  0  0  0  0
   -2.6992   -1.1818   -3.1255 H   0  0  0  0  0  0  0  0  0  0  0  0
   -1.0271   -2.2562   -1.5369 H   0  0  0  0  0  0  0  0  0  0  0  0
    3.1109   -0.2797    4.9516 H   0  0  0  0  0  0  0  0  0  0  0  0
    0.9142    0.8466    4.7170 H   0  0  0  0  0  0  0  0  0  0  0  0
    1.5377    3.3275    3.2750 H   0  0  0  0  0  0  0  0  0  0  0  0
    4.2130    2.7933    2.3731 H   0  0  0  0  0  0  0  0  0  0  0  0
    2.4201    2.2561    0.7043 H   0  0  0  0  0  0  0  0  0  0  0  0
    1.5047    1.4004    1.7275 H   0  0  0  0  0  0  0  0  0  0  0  0
    1.6090   -1.2452    3.0925 H   0  0  0  0  0  0  0  0  0  0  0  0
    3.2141   -1.6848    2.7209 H   0  0  0  0  0  0  0  0  0  0  0  0
    3.9200   -0.2358    1.1612 H   0  0  0  0  0  0  0  0  0  0  0  0
    5.9063    1.2997    4.2224 H   0  0  0  0  0  0  0  0  0  0  0  0
    5.3097   -0.3337    4.3890 H   0  0  0  0  0  0  0  0  0  0  0  0
    5.6868    0.0994    2.7236 H   0  0  0  0  0  0  0  0  0  0  0  0
  -43.3246    3.9062    0.1624 H   0  0  0  0  0  0  0  0  0  0  0  0
  1  2  1  0  0  0  0
  2  3  1  0  0  0  0
  2  4  2  0  0  0  0
  3  5  1  0  0  0  0
  3  6  1  0  0  0  0
  3 24  1  1  0  0  0
  5  8  2  0  0  0  0
  6  7  1  0  0  0  0
  6 25  1  0  0  0  0
  6 26  1  0  0  0  0
  7 27  1  0  0  0  0
  8  9  1  0  0  0  0
  8 28  1  0  0  0  0
  9 10  2  0  0  0  0
  9 29  1  0  0  0  0
 10 11  1  0  0  0  0
 10 30  1  0  0  0  0
 11 12  2  0  0  0  0
 11 31  1  0  0  0  0
 12  5  1  0  0  0  0
 12 32  1  0  0  0  0
 13 14  1  0  0  0  0
 13 17  1  0  0  0  0
 13 19  1  0  0  0  0
 13 33  1  1  0  0  0
 14 15  1  0  0  0  0
 14 21  1  0  0  0  0
 14 34  1  1  0  0  0
 15 16  1  0  0  0  0
 15 21  1  0  0  0  0
 15 35  1  6  0  0  0
 16 17  1  0  0  0  0
 16 18  1  0  0  0  0
 16 36  1  6  0  0  0
 17 22  1  0  0  0  0
 18 20  1  0  0  0  0
 18 37  1  0  0  0  0
 18 38  1  0  0  0  0
 19 20  1  0  0  0  0
 19 39  1  0  0  0  0
 19 40  1  0  0  0  0
 20 41  1  6  0  0  0
 20  1  1  0  0  0  0
 22 42  1  0  0  0  0
 22 43  1  0  0  0  0
 22 44  1  0  0  0  0
 23 45  1  0  0  0  0
M  END
>  <Mol_ID>
774

>  <Formula>
C17H22BrNO4

>  <MolWeight>
384.26488

>  <Cat>
S2508

>  <Name>
Scopolamine (LSM-4015) HBr

>  <Synonyms>
LSM-4015,NSC 61806,(-)-Scopolamine hydrobromide, Hyoscine hydrobromide, Scopine hydrobromide

>  <Target>
AChR

>  <Form>
Hydrobromide

>  <CAS>
114-49-8

>  <URL>
http://selleckchem.com/products/Scopolamine-hydrobromide.html

$$$$
