SD-219286
 OpenBabel08302521403D

 41 43  0  0  0  0  0  0  0  0999 V2000
    1.3721   -0.2138    0.0445 C   0  0  0  0  0  0  0  0  0  0  0  0
    3.0890   -0.6153    0.1793 S   0  0  0  0  0  0  0  0  0  0  0  0
    0.4328   -1.2446   -0.0817 C   0  0  0  0  0  0  0  0  0  0  0  0
    0.9672    1.1238    0.0885 C   0  0  0  0  0  0  0  0  0  0  0  0
    3.5953   -0.5667   -1.4267 N   0  0  0  0  0  0  0  0  0  0  0  0
    3.7600    0.5007    0.8192 O   0  0  0  0  0  0  0  0  0  0  0  0
    3.2197   -1.9502    0.7230 O   0  0  0  0  0  0  0  0  0  0  0  0
   -0.9184   -0.9289   -0.2325 C   0  0  0  0  0  0  0  0  0  0  0  0
   -0.3868    1.4332   -0.0351 C   0  0  0  0  0  0  0  0  0  0  0  0
    3.6565   -1.8508   -2.0065 C   0  0  0  0  0  0  0  0  0  0  0  0
   -1.3195    0.4104   -0.2095 C   0  0  0  0  0  0  0  0  0  0  0  0
    2.6042   -2.3656   -2.5939 N   0  0  0  0  0  0  0  0  0  0  0  0
    5.1098   -2.7396   -2.1227 S   0  0  0  0  0  0  0  0  0  0  0  0
   -2.6627    0.7583   -0.4407 N   0  0  0  0  0  0  0  0  0  0  0  0
    2.9552   -3.5759   -3.1627 C   0  0  0  0  0  0  0  0  0  0  0  0
    4.2600   -3.9741   -2.9580 C   0  0  0  0  0  0  0  0  0  0  0  0
   -3.5500    0.8020    0.6308 C   0  0  0  0  0  0  0  0  0  0  0  0
   -5.0141    0.9837    0.2102 C   0  0  0  0  0  0  0  0  0  0  0  0
   -3.2198    0.6926    1.8092 O   0  0  0  0  0  0  0  0  0  0  0  0
   -5.3911    2.3272   -0.0548 O   0  0  0  0  0  0  0  0  0  0  0  0
   -5.9636    3.0190    0.9790 C   0  0  0  0  0  0  0  0  0  0  0  0
   -5.6963    2.8174    2.3354 C   0  0  0  0  0  0  0  0  0  0  0  0
   -6.8523    4.0311    0.6064 C   0  0  0  0  0  0  0  0  0  0  0  0
   -6.3184    3.6083    3.3058 C   0  0  0  0  0  0  0  0  0  0  0  0
   -7.4800    4.8191    1.5788 C   0  0  0  0  0  0  0  0  0  0  0  0
   -7.2098    4.6091    2.9281 C   0  0  0  0  0  0  0  0  0  0  0  0
    0.7506   -2.2860   -0.0798 H   0  0  0  0  0  0  0  0  0  0  0  0
    1.6943    1.9233    0.2043 H   0  0  0  0  0  0  0  0  0  0  0  0
    4.4839   -0.0714   -1.4395 H   0  0  0  0  0  0  0  0  0  0  0  0
   -1.6437   -1.7308   -0.3377 H   0  0  0  0  0  0  0  0  0  0  0  0
   -0.7064    2.4722   -0.0215 H   0  0  0  0  0  0  0  0  0  0  0  0
   -3.0612    0.3656   -1.2864 H   0  0  0  0  0  0  0  0  0  0  0  0
    2.2133   -4.1370   -3.7188 H   0  0  0  0  0  0  0  0  0  0  0  0
    4.7470   -4.8850   -3.2750 H   0  0  0  0  0  0  0  0  0  0  0  0
   -5.1658    0.4338   -0.7276 H   0  0  0  0  0  0  0  0  0  0  0  0
   -5.6754    0.4910    0.9353 H   0  0  0  0  0  0  0  0  0  0  0  0
   -4.9925    2.0669    2.6791 H   0  0  0  0  0  0  0  0  0  0  0  0
   -7.0625    4.2061   -0.4414 H   0  0  0  0  0  0  0  0  0  0  0  0
   -6.0942    3.4484    4.3577 H   0  0  0  0  0  0  0  0  0  0  0  0
   -8.1741    5.5999    1.2785 H   0  0  0  0  0  0  0  0  0  0  0  0
   -7.6869    5.2279    3.6856 H   0  0  0  0  0  0  0  0  0  0  0  0
  1  2  1  0  0  0  0
  1  3  2  0  0  0  0
  1  4  1  0  0  0  0
  2  5  1  0  0  0  0
  2  6  2  0  0  0  0
  2  7  2  0  0  0  0
  3  8  1  0  0  0  0
  3 27  1  0  0  0  0
  4  9  2  0  0  0  0
  4 28  1  0  0  0  0
  5 10  1  0  0  0  0
  5 29  1  0  0  0  0
  8 11  2  0  0  0  0
  8 30  1  0  0  0  0
  9 11  1  0  0  0  0
  9 31  1  0  0  0  0
 10 12  2  0  0  0  0
 10 13  1  0  0  0  0
 11 14  1  0  0  0  0
 12 15  1  0  0  0  0
 13 16  1  0  0  0  0
 14 17  1  0  0  0  0
 14 32  1  0  0  0  0
 15 16  2  0  0  0  0
 15 33  1  0  0  0  0
 16 34  1  0  0  0  0
 17 18  1  0  0  0  0
 17 19  2  0  0  0  0
 18 20  1  0  0  0  0
 18 35  1  0  0  0  0
 18 36  1  0  0  0  0
 20 21  1  0  0  0  0
 21 22  2  0  0  0  0
 21 23  1  0  0  0  0
 22 24  1  0  0  0  0
 22 37  1  0  0  0  0
 23 25  2  0  0  0  0
 23 38  1  0  0  0  0
 24 26  2  0  0  0  0
 24 39  1  0  0  0  0
 25 26  1  0  0  0  0
 25 40  1  0  0  0  0
 26 41  1  0  0  0  0
M  END
>  <Mol_ID>
8287

>  <Formula>
C17H15N3O4S2

>  <MolWeight>
389.4487

>  <Cat>
P2038

>  <Name>
SD-219286

>  <Synonyms>
N/A

>  <Target>
sodium channels

>  <Form>
free base

>  <CAS>
58590-31-1

>  <URL>
N/A

$$$$
