SD169
 OpenBabel08302521323D

 20 21  0  0  0  0  0  0  0  0999 V2000
   -1.5585    1.0281   -0.0126 N   0  0  0  0  0  0  0  0  0  0  0  0
   -2.3716   -0.0739   -0.0271 C   0  0  0  0  0  0  0  0  0  0  0  0
   -1.5673   -1.1905   -0.0132 C   0  0  0  0  0  0  0  0  0  0  0  0
   -0.2150   -0.7507   -0.0054 C   0  0  0  0  0  0  0  0  0  0  0  0
    1.0300   -1.4096   -0.0026 C   0  0  0  0  0  0  0  0  0  0  0  0
    2.2201   -0.6586   -0.0175 C   0  0  0  0  0  0  0  0  0  0  0  0
    2.1576    0.7404   -0.0194 C   0  0  0  0  0  0  0  0  0  0  0  0
    0.9291    1.4153   -0.0108 C   0  0  0  0  0  0  0  0  0  0  0  0
   -0.2361    0.6431   -0.0088 C   0  0  0  0  0  0  0  0  0  0  0  0
    3.5068   -1.4169   -0.0399 C   0  0  0  0  0  0  0  0  0  0  0  0
    3.5302   -2.6422   -0.0404 O   0  0  0  0  0  0  0  0  0  0  0  0
    4.6827   -0.7198   -0.0670 N   0  0  0  0  0  0  0  0  0  0  0  0
   -1.8771    1.9872   -0.0145 H   0  0  0  0  0  0  0  0  0  0  0  0
   -3.4481    0.0308   -0.0459 H   0  0  0  0  0  0  0  0  0  0  0  0
   -1.9118   -2.2165   -0.0180 H   0  0  0  0  0  0  0  0  0  0  0  0
    1.0646   -2.4963    0.0022 H   0  0  0  0  0  0  0  0  0  0  0  0
    3.0556    1.3477   -0.0298 H   0  0  0  0  0  0  0  0  0  0  0  0
    0.8907    2.5000   -0.0132 H   0  0  0  0  0  0  0  0  0  0  0  0
    4.7705    0.2820   -0.0871 H   0  0  0  0  0  0  0  0  0  0  0  0
    5.5317   -1.2701   -0.0970 H   0  0  0  0  0  0  0  0  0  0  0  0
  1  2  1  0  0  0  0
  1  9  1  0  0  0  0
  1 13  1  0  0  0  0
  2  3  2  0  0  0  0
  2 14  1  0  0  0  0
  3  4  1  0  0  0  0
  3 15  1  0  0  0  0
  4  5  1  0  0  0  0
  4  9  2  0  0  0  0
  5  6  2  0  0  0  0
  5 16  1  0  0  0  0
  6  7  1  0  0  0  0
  6 10  1  0  0  0  0
  7  8  2  0  0  0  0
  7 17  1  0  0  0  0
  8  9  1  0  0  0  0
  8 18  1  0  0  0  0
 10 11  2  0  0  0  0
 10 12  1  0  0  0  0
 12 19  1  0  0  0  0
 12 20  1  0  0  0  0
M  END
>  <Mol_ID>
6161

>  <Formula>
C9H8N2O

>  <MolWeight>
160.17262

>  <Cat>
S0388

>  <Name>
SD169

>  <Synonyms>
5-Carbamoylindole

>  <Target>
p38 MAPK

>  <Form>
free base

>  <CAS>
1670-87-7

>  <URL>
http://www.selleckchem.com/products/sd169.html

$$$$
