SEL120 (SEL120-34A) hydrochloride
 OpenBabel08302521223D

 39 42  0  0  0  0  0  0  0  0999 V2000
   -0.0316   -0.0935    0.0395 C   0  0  0  0  0  0  0  0  0  0  0  0
   -0.0609    1.2973   -0.0208 C   0  0  0  0  0  0  0  0  0  0  0  0
    1.2011    1.9091   -0.0418 C   0  0  0  0  0  0  0  0  0  0  0  0
    2.3897    1.1308    0.0318 C   0  0  0  0  0  0  0  0  0  0  0  0
    2.3590   -0.2991    0.0985 C   0  0  0  0  0  0  0  0  0  0  0  0
    1.0767   -0.9003    0.0841 C   0  0  0  0  0  0  0  0  0  0  0  0
   -1.1046   -0.9421    0.0260 N   0  0  0  0  0  0  0  0  0  0  0  0
   -2.4315   -0.3902   -0.1886 C   0  0  0  0  0  0  0  0  0  0  0  0
   -2.5185    1.0295    0.3986 C   0  0  0  0  0  0  0  0  0  0  0  0
   -1.4071    1.9581   -0.1390 C   0  0  0  0  0  0  0  0  0  0  0  0
   -0.6446   -2.2329    0.0763 C   0  0  0  0  0  0  0  0  0  0  0  0
    0.6766   -2.2295    0.0869 N   0  0  0  0  0  0  0  0  0  0  0  0
   -1.4912   -3.2841   -0.0331 N   0  0  0  0  0  0  0  0  0  0  0  0
    1.2482    3.8183   -0.1842 Br  0  0  0  0  0  0  0  0  0  0  0  0
    4.0921    2.0249    0.0400 Br  0  0  0  0  0  0  0  0  0  0  0  0
    3.5818   -1.1685    0.1620 C   0  0  0  0  0  0  0  0  0  0  0  0
   -1.0428   -4.5306   -0.6620 C   0  0  0  0  0  0  0  0  0  0  0  0
   -2.2580   -5.1546   -1.4065 C   0  0  0  0  0  0  0  0  0  0  0  0
   -3.4780   -5.3292   -0.5744 N   0  0  0  0  0  0  0  0  0  0  0  0
   -3.7884   -4.0616    0.1252 C   0  0  0  0  0  0  0  0  0  0  0  0
   -2.5827   -3.5053    0.9183 C   0  0  0  0  0  0  0  0  0  0  0  0
   -3.1851   -1.0166    0.2807 H   0  0  0  0  0  0  0  0  0  0  0  0
   -2.6055   -0.3837   -1.2700 H   0  0  0  0  0  0  0  0  0  0  0  0
   -2.4222    0.9624    1.4918 H   0  0  0  0  0  0  0  0  0  0  0  0
   -3.5030    1.4604    0.1898 H   0  0  0  0  0  0  0  0  0  0  0  0
   -1.4446    2.8922    0.4287 H   0  0  0  0  0  0  0  0  0  0  0  0
   -1.6004    2.1827   -1.1948 H   0  0  0  0  0  0  0  0  0  0  0  0
    3.5331   -1.8056    1.0511 H   0  0  0  0  0  0  0  0  0  0  0  0
    3.6303   -1.8058   -0.7268 H   0  0  0  0  0  0  0  0  0  0  0  0
    4.5243   -0.6221    0.2190 H   0  0  0  0  0  0  0  0  0  0  0  0
   -0.2333   -4.3615   -1.3816 H   0  0  0  0  0  0  0  0  0  0  0  0
   -0.6762   -5.2292    0.1016 H   0  0  0  0  0  0  0  0  0  0  0  0
   -2.5176   -4.5187   -2.2625 H   0  0  0  0  0  0  0  0  0  0  0  0
   -1.9753   -6.1315   -1.8137 H   0  0  0  0  0  0  0  0  0  0  0  0
   -3.2715   -6.0341    0.1334 H   0  0  0  0  0  0  0  0  0  0  0  0
   -4.1191   -3.3205   -0.6157 H   0  0  0  0  0  0  0  0  0  0  0  0
   -4.6313   -4.2272    0.8039 H   0  0  0  0  0  0  0  0  0  0  0  0
   -2.2728   -4.2324    1.6799 H   0  0  0  0  0  0  0  0  0  0  0  0
   -2.8704   -2.6054    1.4683 H   0  0  0  0  0  0  0  0  0  0  0  0
  1  2  1  0  0  0  0
  1  7  1  0  0  0  0
  2  3  2  0  0  0  0
  3  4  1  0  0  0  0
  3 14  1  0  0  0  0
  4  5  2  0  0  0  0
  4 15  1  0  0  0  0
  5  6  1  0  0  0  0
  5 16  1  0  0  0  0
  6  1  2  0  0  0  0
  7  8  1  0  0  0  0
  7 11  1  0  0  0  0
  8  9  1  0  0  0  0
  8 22  1  0  0  0  0
  8 23  1  0  0  0  0
  9 10  1  0  0  0  0
  9 24  1  0  0  0  0
  9 25  1  0  0  0  0
 10  2  1  0  0  0  0
 10 26  1  0  0  0  0
 10 27  1  0  0  0  0
 11 12  2  0  0  0  0
 11 13  1  0  0  0  0
 12  6  1  0  0  0  0
 13 17  1  0  0  0  0
 16 28  1  0  0  0  0
 16 29  1  0  0  0  0
 16 30  1  0  0  0  0
 17 18  1  0  0  0  0
 17 31  1  0  0  0  0
 17 32  1  0  0  0  0
 18 19  1  0  0  0  0
 18 33  1  0  0  0  0
 18 34  1  0  0  0  0
 19 20  1  0  0  0  0
 19 35  1  0  0  0  0
 20 21  1  0  0  0  0
 20 36  1  0  0  0  0
 20 37  1  0  0  0  0
 21 13  1  0  0  0  0
 21 38  1  0  0  0  0
 21 39  1  0  0  0  0
M  END
>  <Mol_ID>
4674

>  <Formula>
C15H19Br2ClN4

>  <MolWeight>
450.59916

>  <Cat>
S8840

>  <Name>
SEL120 (SEL120-34A) hydrochloride

>  <Synonyms>
SEL120-34

>  <Target>
CDK

>  <Form>
hydrochloride

>  <CAS>
1609452-30-3

>  <URL>
http://www.selleck.cn/products/sel120.html

$$$$
