SEL201
 OpenBabel08302521253D

 40 43  0  0  0  0  0  0  0  0999 V2000
    0.6406   -0.6651   -0.2453 C   0  0  0  0  0  0  0  0  0  0  0  0
   -0.3220   -1.5653    0.2156 C   0  0  0  0  0  0  0  0  0  0  0  0
   -1.5262   -1.0877    0.7451 C   0  0  0  0  0  0  0  0  0  0  0  0
   -1.7628    0.2939    0.8211 C   0  0  0  0  0  0  0  0  0  0  0  0
   -0.7993    1.2038    0.3550 C   0  0  0  0  0  0  0  0  0  0  0  0
    0.4035    0.7090   -0.1762 C   0  0  0  0  0  0  0  0  0  0  0  0
   -1.0068    2.7021    0.4861 C   0  0  0  0  0  0  0  0  0  0  0  0
   -0.4582    3.2184    1.7402 N   0  0  0  0  0  0  0  0  0  0  0  0
    0.9009    3.5259    1.7898 C   0  0  0  0  0  0  0  0  0  0  0  0
    1.4327    3.8295    3.1326 C   0  0  0  0  0  0  0  0  0  0  0  0
    0.6051    3.9468    4.1757 C   0  0  0  0  0  0  0  0  0  0  0  0
   -0.8440    3.8099    4.0355 C   0  0  0  0  0  0  0  0  0  0  0  0
   -1.2959    3.4057    2.8299 C   0  0  0  0  0  0  0  0  0  0  0  0
    1.6649    3.5128    0.8260 O   0  0  0  0  0  0  0  0  0  0  0  0
   -1.8130    4.1738    5.1230 C   0  0  0  0  0  0  0  0  0  0  0  0
   -1.3470    4.8754    6.2447 C   0  0  0  0  0  0  0  0  0  0  0  0
   -2.2848    5.1338    7.2368 C   0  0  0  0  0  0  0  0  0  0  0  0
   -3.6476    5.1712    7.0263 C   0  0  0  0  0  0  0  0  0  0  0  0
   -4.1334    4.3962    5.9669 C   0  0  0  0  0  0  0  0  0  0  0  0
   -3.1799    3.8159    5.0971 C   0  0  0  0  0  0  0  0  0  0  0  0
   -2.2299    5.0664    8.6025 N   0  0  0  0  0  0  0  0  0  0  0  0
   -3.2978    5.6134    9.2024 N   0  0  0  0  0  0  0  0  0  0  0  0
   -4.0753    5.9072    8.1634 C   0  0  0  0  0  0  0  0  0  0  0  0
   -4.7158    7.0995    8.1603 N   0  0  0  0  0  0  0  0  0  0  0  0
    1.5853   -1.0342   -0.6294 H   0  0  0  0  0  0  0  0  0  0  0  0
   -0.1342   -2.6311    0.1690 H   0  0  0  0  0  0  0  0  0  0  0  0
   -2.2662   -1.7828    1.1004 H   0  0  0  0  0  0  0  0  0  0  0  0
   -2.7150    0.6330    1.2581 H   0  0  0  0  0  0  0  0  0  0  0  0
    1.1884    1.3952   -0.5107 H   0  0  0  0  0  0  0  0  0  0  0  0
   -0.5253    3.2165   -0.3517 H   0  0  0  0  0  0  0  0  0  0  0  0
   -2.0751    2.9471    0.4176 H   0  0  0  0  0  0  0  0  0  0  0  0
    2.5049    3.9621    3.2154 H   0  0  0  0  0  0  0  0  0  0  0  0
    1.0401    4.1323    5.1509 H   0  0  0  0  0  0  0  0  0  0  0  0
   -2.3495    3.2468    2.6283 H   0  0  0  0  0  0  0  0  0  0  0  0
   -0.3106    5.1445    6.4032 H   0  0  0  0  0  0  0  0  0  0  0  0
   -5.1770    4.0971    5.9288 H   0  0  0  0  0  0  0  0  0  0  0  0
   -3.5325    3.0538    4.4065 H   0  0  0  0  0  0  0  0  0  0  0  0
   -1.5864    4.5103    9.1492 H   0  0  0  0  0  0  0  0  0  0  0  0
   -4.2616    7.7742    7.5422 H   0  0  0  0  0  0  0  0  0  0  0  0
   -4.6401    7.5126    9.0925 H   0  0  0  0  0  0  0  0  0  0  0  0
  1  2  2  0  0  0  0
  1 25  1  0  0  0  0
  2  3  1  0  0  0  0
  2 26  1  0  0  0  0
  3  4  2  0  0  0  0
  3 27  1  0  0  0  0
  4  5  1  0  0  0  0
  4 28  1  0  0  0  0
  5  6  2  0  0  0  0
  5  7  1  0  0  0  0
  6  1  1  0  0  0  0
  6 29  1  0  0  0  0
  7  8  1  0  0  0  0
  7 30  1  0  0  0  0
  7 31  1  0  0  0  0
  8  9  1  0  0  0  0
  9 10  1  0  0  0  0
  9 14  2  0  0  0  0
 10 11  2  0  0  0  0
 10 32  1  0  0  0  0
 11 12  1  0  0  0  0
 11 33  1  0  0  0  0
 12 13  2  0  0  0  0
 12 15  1  0  0  0  0
 13  8  1  0  0  0  0
 13 34  1  0  0  0  0
 15 16  2  0  0  0  0
 16 17  1  0  0  0  0
 16 35  1  0  0  0  0
 17 18  2  0  0  0  0
 17 21  1  0  0  0  0
 18 19  1  0  0  0  0
 19 20  2  0  0  0  0
 19 36  1  0  0  0  0
 20 15  1  0  0  0  0
 20 37  1  0  0  0  0
 21 22  1  0  0  0  0
 21 38  1  0  0  0  0
 22 23  2  0  0  0  0
 23 18  1  0  0  0  0
 23 24  1  0  0  0  0
 24 39  1  0  0  0  0
 24 40  1  0  0  0  0
M  END
>  <Mol_ID>
5203

>  <Formula>
C19H15ClN4O

>  <MolWeight>
350.8016

>  <Cat>
S6888

>  <Name>
SEL201

>  <Synonyms>
SLV-2436, SEL201-88

>  <Target>
MNK

>  <Form>
free base

>  <CAS>
2095704-43-9

>  <URL>
http://www.selleckchem.com/products/sel201.html

$$$$
