Senecionine
 OpenBabel08302521572D

 49 51  0  0  1  0  0  0  0  0999 V2000
    6.3540    6.2175    0.0000 O   0  0  0  0  0  0  0  0  0  0  0  0
    7.6898    3.7272    0.0000 C   0  0  0  0  0  0  0  0  0  0  0  0
    8.4310    4.9148    0.0000 C   0  0  0  0  0  0  0  0  0  0  0  0
    1.4056    0.0990    0.0000 O   0  0  0  0  0  0  0  0  0  0  0  0
    3.2458    0.0000    0.0000 C   0  0  0  0  0  0  0  0  0  0  0  0
    4.7770    0.9226    0.0000 O   0  0  0  0  0  0  0  0  0  0  0  0
    3.4528    3.8095    0.0000 C   0  0  0  0  0  0  0  0  0  0  0  0
    2.1315    6.0981    0.0000 C   0  0  2  0  0  0  0  0  0  0  0  0
    3.4856    6.2369    0.0000 C   0  0  1  0  0  0  0  0  0  0  0  0
    1.4497    7.2790    0.0000 N   0  0  3  0  0  0  0  0  0  0  0  0
    1.3342    4.9948    0.0000 C   0  0  0  0  0  0  0  0  0  0  0  0
    3.7114    7.6472    0.0000 C   0  0  0  0  0  0  0  0  0  0  0  0
    4.2497    5.0448    0.0000 O   0  0  0  0  0  0  0  0  0  0  0  0
    2.4616    8.2866    0.0000 C   0  0  0  0  0  0  0  0  0  0  0  0
    0.0713    6.9065    0.0000 C   0  0  0  0  0  0  0  0  0  0  0  0
    0.0000    5.5043    0.0000 C   0  0  0  0  0  0  0  0  0  0  0  0
    1.9846    3.7370    0.0000 C   0  0  0  0  0  0  0  0  0  0  0  0
    5.6245    5.0226    0.0000 C   0  0  0  0  0  0  0  0  0  0  0  0
    1.3164    2.5354    0.0000 O   0  0  0  0  0  0  0  0  0  0  0  0
    6.2908    3.7752    0.0000 C   0  0  0  0  0  0  0  0  0  0  0  0
    2.0636    1.3346    0.0000 C   0  0  0  0  0  0  0  0  0  0  0  0
    5.5519    2.5947    0.0000 C   0  0  0  0  0  0  0  0  0  0  0  0
    3.4551    1.3842    0.0000 C   0  0  2  0  0  0  0  0  0  0  0  0
    4.1528    2.5972    0.0000 C   0  0  2  0  0  0  0  0  0  0  0  0
    8.1748    2.8163    0.0000 H   0  0  0  0  0  0  0  0  0  0  0  0
    9.5004    4.8780    0.0000 H   0  0  0  0  0  0  0  0  0  0  0  0
    7.9282    5.8593    0.0000 H   0  0  0  0  0  0  0  0  0  0  0  0
    8.9975    5.8225    0.0000 H   0  0  0  0  0  0  0  0  0  0  0  0
    2.2496   -0.3904    0.0000 H   0  0  0  0  0  0  0  0  0  0  0  0
    4.0820   -0.6675    0.0000 H   0  0  0  0  0  0  0  0  0  0  0  0
    3.0858   -1.0580    0.0000 H   0  0  0  0  0  0  0  0  0  0  0  0
    4.9579   -0.0304    0.0000 H   0  0  0  0  0  0  0  0  0  0  0  0
    3.9878    4.7362    0.0000 H   0  0  0  0  0  0  0  0  0  0  0  0
    2.3828    3.8094    0.0000 H   0  0  0  0  0  0  0  0  0  0  0  0
    2.9178    4.7361    0.0000 H   0  0  0  0  0  0  0  0  0  0  0  0
    2.6185    7.0509    0.0000 H   0  0  0  0  0  0  0  0  0  0  0  0
    2.7507    7.0146    0.0000 H   0  0  0  0  0  0  0  0  0  0  0  0
    4.6656    8.1314    0.0000 H   0  0  0  0  0  0  0  0  0  0  0  0
    3.7132    8.7172    0.0000 H   0  0  0  0  0  0  0  0  0  0  0  0
    2.2962    9.3437    0.0000 H   0  0  0  0  0  0  0  0  0  0  0  0
    3.3284    8.9140    0.0000 H   0  0  0  0  0  0  0  0  0  0  0  0
   -0.7615    7.5783    0.0000 H   0  0  0  0  0  0  0  0  0  0  0  0
   -0.9055    6.4696    0.0000 H   0  0  0  0  0  0  0  0  0  0  0  0
   -0.8646    4.9408    0.0000 H   0  0  0  0  0  0  0  0  0  0  0  0
    3.0545    3.7208    0.0000 H   0  0  0  0  0  0  0  0  0  0  0  0
    2.5200    2.8106    0.0000 H   0  0  0  0  0  0  0  0  0  0  0  0
    6.0695    1.6582    0.0000 H   0  0  0  0  0  0  0  0  0  0  0  0
    5.0074    1.6736    0.0000 H   0  0  0  0  0  0  0  0  0  0  0  0
    4.6886    3.5234    0.0000 H   0  0  0  0  0  0  0  0  0  0  0  0
  1 18  2  0  0  0  0
  2  3  1  0  0  0  0
  2 20  2  0  0  0  0
  2 25  1  0  0  0  0
  3 26  1  0  0  0  0
  3 27  1  0  0  0  0
  3 28  1  0  0  0  0
  4 21  2  0  0  0  0
  5 29  1  0  0  0  0
  5 30  1  0  0  0  0
  5 31  1  0  0  0  0
  6 32  1  0  0  0  0
  7 33  1  0  0  0  0
  7 34  1  0  0  0  0
  7 35  1  0  0  0  0
  8  9  1  0  0  0  0
  8 10  1  0  0  0  0
  8 11  1  0  0  0  0
  8 36  1  6  0  0  0
  9 12  1  0  0  0  0
  9 13  1  0  0  0  0
  9 37  1  6  0  0  0
 10 14  1  0  0  0  0
 10 15  1  0  0  0  0
 11 16  2  0  0  0  0
 11 17  1  0  0  0  0
 12 14  1  0  0  0  0
 12 38  1  0  0  0  0
 12 39  1  0  0  0  0
 13 18  1  0  0  0  0
 14 40  1  0  0  0  0
 14 41  1  0  0  0  0
 15 16  1  0  0  0  0
 15 42  1  0  0  0  0
 15 43  1  0  0  0  0
 16 44  1  0  0  0  0
 17 19  1  0  0  0  0
 17 45  1  0  0  0  0
 17 46  1  0  0  0  0
 18 20  1  0  0  0  0
 19 21  1  0  0  0  0
 20 22  1  0  0  0  0
 21 23  1  0  0  0  0
 22 24  1  0  0  0  0
 22 47  1  0  0  0  0
 22 48  1  0  0  0  0
 23  5  1  0  0  0  0
 23  6  1  1  0  0  0
 23 24  1  0  0  0  0
 24  7  1  0  0  0  0
 24 49  1  1  0  0  0
M  END
>  <Mol_ID>
9777

>  <Formula>
C18H25NO5

>  <MolWeight>
335.3948

>  <Cat>
E2302

>  <Name>
Senecionine

>  <Synonyms>
Senecionan-11,16-dione, 12-hydroxy-; Aureine; Senecionin

>  <Target>
Apoptosis

>  <Form>
Free Base

>  <CAS>
130-01-8

>  <URL>
https://www.selleckchem.com/products/senecionine.html

$$$$
