Senkyunolide A
 OpenBabel08302521273D

 30 31  0  0  0  0  0  0  0  0999 V2000
    1.0596    0.0717    0.4217 O   0  0  0  0  0  0  0  0  0  0  0  0
    2.2378    0.0805    0.1105 C   0  0  0  0  0  0  0  0  0  0  0  0
    3.0159   -1.0224   -0.0887 O   0  0  0  0  0  0  0  0  0  0  0  0
    4.3267   -0.6249   -0.5516 C   0  0  2  0  0  0  0  0  0  0  0  0
    4.2951    0.8494   -0.4145 C   0  0  0  0  0  0  0  0  0  0  0  0
    5.4568    1.7811   -0.5388 C   0  0  0  0  0  0  0  0  0  0  0  0
    5.0901    3.2816   -0.4083 C   0  0  0  0  0  0  0  0  0  0  0  0
    3.6595    3.5906   -0.0401 C   0  0  0  0  0  0  0  0  0  0  0  0
    2.7280    2.6379    0.1239 C   0  0  0  0  0  0  0  0  0  0  0  0
    3.0780    1.2669   -0.0746 C   0  0  0  0  0  0  0  0  0  0  0  0
    4.4552   -1.1654   -1.9841 C   0  0  0  0  0  0  0  0  0  0  0  0
    5.7632   -0.8865   -2.7232 C   0  0  0  0  0  0  0  0  0  0  0  0
    6.9986   -1.4379   -2.0150 C   0  0  0  0  0  0  0  0  0  0  0  0
    8.2661   -1.1183   -2.7931 C   0  0  0  0  0  0  0  0  0  0  0  0
    5.0605   -1.0776    0.1228 H   0  0  0  0  0  0  0  0  0  0  0  0
    5.9629    1.6523   -1.4972 H   0  0  0  0  0  0  0  0  0  0  0  0
    6.1962    1.5270    0.2315 H   0  0  0  0  0  0  0  0  0  0  0  0
    5.3094    3.7787   -1.3621 H   0  0  0  0  0  0  0  0  0  0  0  0
    5.7514    3.7427    0.3352 H   0  0  0  0  0  0  0  0  0  0  0  0
    3.3886    4.6356    0.0836 H   0  0  0  0  0  0  0  0  0  0  0  0
    1.7016    2.8792    0.3834 H   0  0  0  0  0  0  0  0  0  0  0  0
    4.2883   -2.2509   -1.9591 H   0  0  0  0  0  0  0  0  0  0  0  0
    3.6278   -0.7714   -2.5907 H   0  0  0  0  0  0  0  0  0  0  0  0
    5.6929   -1.3395   -3.7202 H   0  0  0  0  0  0  0  0  0  0  0  0
    5.8745    0.1852   -2.9052 H   0  0  0  0  0  0  0  0  0  0  0  0
    7.0910   -1.0144   -1.0096 H   0  0  0  0  0  0  0  0  0  0  0  0
    6.9057   -2.5245   -1.9055 H   0  0  0  0  0  0  0  0  0  0  0  0
    8.4014   -0.0361   -2.8909 H   0  0  0  0  0  0  0  0  0  0  0  0
    9.1413   -1.5240   -2.2763 H   0  0  0  0  0  0  0  0  0  0  0  0
    8.2317   -1.5523   -3.7974 H   0  0  0  0  0  0  0  0  0  0  0  0
  1  2  2  0  0  0  0
  2  3  1  0  0  0  0
  2 10  1  0  0  0  0
  3  4  1  0  0  0  0
  4  5  1  0  0  0  0
  4 11  1  0  0  0  0
  4 15  1  1  0  0  0
  5  6  1  0  0  0  0
  5 10  2  0  0  0  0
  6  7  1  0  0  0  0
  6 16  1  0  0  0  0
  6 17  1  0  0  0  0
  7  8  1  0  0  0  0
  7 18  1  0  0  0  0
  7 19  1  0  0  0  0
  8  9  2  0  0  0  0
  8 20  1  0  0  0  0
  9 10  1  0  0  0  0
  9 21  1  0  0  0  0
 11 12  1  0  0  0  0
 11 22  1  0  0  0  0
 11 23  1  0  0  0  0
 12 13  1  0  0  0  0
 12 24  1  0  0  0  0
 12 25  1  0  0  0  0
 13 14  1  0  0  0  0
 13 26  1  0  0  0  0
 13 27  1  0  0  0  0
 14 28  1  0  0  0  0
 14 29  1  0  0  0  0
 14 30  1  0  0  0  0
M  END
>  <Mol_ID>
5326

>  <Formula>
C12H16O2

>  <MolWeight>
192.25424

>  <Cat>
S9513

>  <Name>
Senkyunolide A

>  <Synonyms>
N/A

>  <Target>
Others

>  <Form>
Free Base

>  <CAS>
62006-39-7

>  <URL>
https://www.selleckchem.com/products/senkyunolide-a.html

$$$$
