Senkyunolide I
 OpenBabel08302521253D

 32 33  0  0  0  0  0  0  0  0999 V2000
    2.4736   -0.0344    0.0325 O   0  0  0  0  0  0  0  0  0  0  0  0
   -2.7664   -1.0216    1.4675 O   0  0  0  0  0  0  0  0  0  0  0  0
   -0.9883   -2.1624   -1.3653 O   0  0  0  0  0  0  0  0  0  0  0  0
    1.9945   -2.2859    0.1155 O   0  0  0  0  0  0  0  0  0  0  0  0
   -2.2672   -0.7657    0.1500 C   0  0  2  0  0  0  0  0  0  0  0  0
   -0.9432   -1.5446   -0.0786 C   0  0  2  0  0  0  0  0  0  0  0  0
   -2.2609    0.7571   -0.0975 C   0  0  0  0  0  0  0  0  0  0  0  0
   -0.9262    1.5103    0.0143 C   0  0  0  0  0  0  0  0  0  0  0  0
    0.2792    0.6461    0.0025 C   0  0  0  0  0  0  0  0  0  0  0  0
    0.2440   -0.6795   -0.0390 C   0  0  0  0  0  0  0  0  0  0  0  0
    1.6371    1.0741    0.0247 C   0  0  0  0  0  0  0  0  0  0  0  0
    1.6359   -1.1228    0.0288 C   0  0  0  0  0  0  0  0  0  0  0  0
    2.0891    2.3373    0.0363 C   0  0  0  0  0  0  0  0  0  0  0  0
    3.5356    2.7392    0.0314 C   0  0  0  0  0  0  0  0  0  0  0  0
    3.9365    3.5421    1.2711 C   0  0  0  0  0  0  0  0  0  0  0  0
    3.7962    2.7538    2.5656 C   0  0  0  0  0  0  0  0  0  0  0  0
   -2.1601   -0.6088    2.1109 H   0  0  0  0  0  0  0  0  0  0  0  0
   -1.5930   -2.9223   -1.2843 H   0  0  0  0  0  0  0  0  0  0  0  0
   -3.0332   -1.1870   -0.5165 H   0  0  0  0  0  0  0  0  0  0  0  0
   -0.8412   -2.3366    0.6743 H   0  0  0  0  0  0  0  0  0  0  0  0
   -2.6496    0.9352   -1.1096 H   0  0  0  0  0  0  0  0  0  0  0  0
   -2.9765    1.2411    0.5805 H   0  0  0  0  0  0  0  0  0  0  0  0
   -0.8683    2.2266   -0.8194 H   0  0  0  0  0  0  0  0  0  0  0  0
   -0.9278    2.1070    0.9329 H   0  0  0  0  0  0  0  0  0  0  0  0
    1.3786    3.1602    0.0360 H   0  0  0  0  0  0  0  0  0  0  0  0
    4.1953    1.8691   -0.0707 H   0  0  0  0  0  0  0  0  0  0  0  0
    3.7070    3.3610   -0.8574 H   0  0  0  0  0  0  0  0  0  0  0  0
    4.9813    3.8567    1.1613 H   0  0  0  0  0  0  0  0  0  0  0  0
    3.3365    4.4579    1.3378 H   0  0  0  0  0  0  0  0  0  0  0  0
    4.3662    1.8208    2.5204 H   0  0  0  0  0  0  0  0  0  0  0  0
    4.1738    3.3430    3.4075 H   0  0  0  0  0  0  0  0  0  0  0  0
    2.7500    2.5102    2.7740 H   0  0  0  0  0  0  0  0  0  0  0  0
  1 11  1  0  0  0  0
  1 12  1  0  0  0  0
  2 17  1  0  0  0  0
  3 18  1  0  0  0  0
  4 12  2  0  0  0  0
  5  2  1  0  0  0  0
  5  6  1  0  0  0  0
  5  7  1  0  0  0  0
  5 19  1  6  0  0  0
  6 10  1  0  0  0  0
  6 20  1  1  0  0  0
  6  3  1  0  0  0  0
  7  8  1  0  0  0  0
  7 21  1  0  0  0  0
  7 22  1  0  0  0  0
  8  9  1  0  0  0  0
  8 23  1  0  0  0  0
  8 24  1  0  0  0  0
  9 10  2  0  0  0  0
  9 11  1  0  0  0  0
 10 12  1  0  0  0  0
 11 13  2  0  0  0  0
 13 14  1  0  0  0  0
 13 25  1  0  0  0  0
 14 15  1  0  0  0  0
 14 26  1  0  0  0  0
 14 27  1  0  0  0  0
 15 16  1  0  0  0  0
 15 28  1  0  0  0  0
 15 29  1  0  0  0  0
 16 30  1  0  0  0  0
 16 31  1  0  0  0  0
 16 32  1  0  0  0  0
M  END
>  <Mol_ID>
5150

>  <Formula>
C12H16O4

>  <MolWeight>
224.25304

>  <Cat>
S3275

>  <Name>
Senkyunolide I

>  <Synonyms>
SEI, SENI

>  <Target>
Apoptosis related,Bcl-2,Caspase,ERK,Nrf2

>  <Form>
free base

>  <CAS>
94596-28-8

>  <URL>
http://www.selleckchem.com/products/senkyunolide-i.html

$$$$
