Serotonin hydrochloride.cdx
 OpenBabel08302522043D

 25 26  0  0  0  0  0  0  0  0999 V2000
    1.8661   -0.1258    0.0267 C   0  0  0  0  0  0  0  0  0  0  0  0
    1.5617    1.2308    0.0269 C   0  0  0  0  0  0  0  0  0  0  0  0
    0.2293    1.6557    0.0033 C   0  0  0  0  0  0  0  0  0  0  0  0
   -0.7679    0.6719   -0.0261 C   0  0  0  0  0  0  0  0  0  0  0  0
   -0.4840   -0.6948   -0.0235 C   0  0  0  0  0  0  0  0  0  0  0  0
    0.8664   -1.0987    0.0077 C   0  0  0  0  0  0  0  0  0  0  0  0
   -2.1364    0.7995   -0.0696 N   0  0  0  0  0  0  0  0  0  0  0  0
   -2.7268   -0.4357   -0.1092 C   0  0  0  0  0  0  0  0  0  0  0  0
   -1.7340   -1.3967   -0.0692 C   0  0  0  0  0  0  0  0  0  0  0  0
    3.1618   -0.5583    0.0396 O   0  0  0  0  0  0  0  0  0  0  0  0
   -1.9262   -2.8832   -0.1010 C   0  0  0  0  0  0  0  0  0  0  0  0
   -2.1120   -3.4863    1.2972 C   0  0  0  0  0  0  0  0  0  0  0  0
   -2.3200   -4.9361    1.2365 N   0  0  0  0  0  0  0  0  0  0  0  0
    2.3486    1.9787    0.0429 H   0  0  0  0  0  0  0  0  0  0  0  0
   -0.0172    2.7125    0.0008 H   0  0  0  0  0  0  0  0  0  0  0  0
    1.1316   -2.1511    0.0053 H   0  0  0  0  0  0  0  0  0  0  0  0
   -2.6292    1.6808   -0.0870 H   0  0  0  0  0  0  0  0  0  0  0  0
   -3.8031   -0.5275   -0.1717 H   0  0  0  0  0  0  0  0  0  0  0  0
    3.7463    0.2164    0.0216 H   0  0  0  0  0  0  0  0  0  0  0  0
   -2.7997   -3.1160   -0.7244 H   0  0  0  0  0  0  0  0  0  0  0  0
   -1.0637   -3.3522   -0.5913 H   0  0  0  0  0  0  0  0  0  0  0  0
   -1.2299   -3.2844    1.9146 H   0  0  0  0  0  0  0  0  0  0  0  0
   -2.9714   -3.0268    1.7998 H   0  0  0  0  0  0  0  0  0  0  0  0
   -2.4478   -5.2949    2.1821 H   0  0  0  0  0  0  0  0  0  0  0  0
   -3.1844   -5.1373    0.7358 H   0  0  0  0  0  0  0  0  0  0  0  0
  1  2  2  0  0  0  0
  1 10  1  0  0  0  0
  2  3  1  0  0  0  0
  2 14  1  0  0  0  0
  3  4  2  0  0  0  0
  3 15  1  0  0  0  0
  4  5  1  0  0  0  0
  4  7  1  0  0  0  0
  5  6  2  0  0  0  0
  6  1  1  0  0  0  0
  6 16  1  0  0  0  0
  7  8  1  0  0  0  0
  7 17  1  0  0  0  0
  8  9  2  0  0  0  0
  8 18  1  0  0  0  0
  9  5  1  0  0  0  0
  9 11  1  0  0  0  0
 10 19  1  0  0  0  0
 11 12  1  0  0  0  0
 11 20  1  0  0  0  0
 11 21  1  0  0  0  0
 12 13  1  0  0  0  0
 12 22  1  0  0  0  0
 12 23  1  0  0  0  0
 13 24  1  0  0  0  0
 13 25  1  0  0  0  0
M  END
>  <Mol_ID>
1315

>  <Formula>
C10H13ClN2O

>  <MolWeight>
212.67602

>  <Cat>
S4244

>  <Name>
Serotonin HCl

>  <Synonyms>
5-HT HCl

>  <Target>
5-HT Receptor

>  <Form>
Hydrochloride

>  <CAS>
153-98-0

>  <URL>
http://selleckchem.com/products/serotonin-hcl.html

$$$$
