SEROMYCIN (cycloserine).cdx
 OpenBabel08302521383D

 13 13  0  0  0  0  0  0  0  0999 V2000
    1.1380   -0.1335    0.3279 O   0  0  0  0  0  0  0  0  0  0  0  0
    2.3479   -0.0590    0.1857 C   0  0  0  0  0  0  0  0  0  0  0  0
    3.1886   -1.1342   -0.0140 N   0  0  0  0  0  0  0  0  0  0  0  0
    4.4672   -0.7128   -0.4541 O   0  0  0  0  0  0  0  0  0  0  0  0
    4.3289    0.6920   -0.7118 C   0  0  0  0  0  0  0  0  0  0  0  0
    3.2188    1.1761    0.2113 C   0  0  1  0  0  0  0  0  0  0  0  0
    2.5277    2.3932   -0.2299 N   0  0  0  0  0  0  0  0  0  0  0  0
    2.8419   -2.0476   -0.2800 H   0  0  0  0  0  0  0  0  0  0  0  0
    5.2781    1.1995   -0.5173 H   0  0  0  0  0  0  0  0  0  0  0  0
    4.0757    0.8147   -1.7721 H   0  0  0  0  0  0  0  0  0  0  0  0
    3.5848    1.3001    1.2365 H   0  0  0  0  0  0  0  0  0  0  0  0
    3.1928    3.1528   -0.3528 H   0  0  0  0  0  0  0  0  0  0  0  0
    2.0758    2.2345   -1.1297 H   0  0  0  0  0  0  0  0  0  0  0  0
  1  2  2  0  0  0  0
  2  3  1  0  0  0  0
  3  4  1  0  0  0  0
  3  8  1  0  0  0  0
  4  5  1  0  0  0  0
  5  6  1  0  0  0  0
  5  9  1  0  0  0  0
  5 10  1  0  0  0  0
  6  2  1  0  0  0  0
  6  7  1  0  0  0  0
  6 11  1  1  0  0  0
  7 12  1  0  0  0  0
  7 13  1  0  0  0  0
M  END
>  <Mol_ID>
7751

>  <Formula>
C3H6N2O2

>  <MolWeight>
102.09194

>  <Cat>
S1998

>  <Name>
D-Cycloserine

>  <Synonyms>
RO-1-9213

>  <Target>
Antibiotics,Selection Antibiotics for Transfected Cell

>  <Form>
free base

>  <CAS>
68-41-7

>  <URL>
http://selleckchem.com/products/D-Cycloserine.html

$$$$
