Sesamolin
 OpenBabel08302521463D

 45 50  0  0  1  0  0  0  0  0999 V2000
    0.9421   -0.1269   -0.0644 O   0  0  0  0  0  0  0  0  0  0  0  0
    3.2982   -1.5282   -1.8140 C   0  0  1  0  0  0  0  0  0  0  0  0
    2.8912   -0.0955   -1.4950 C   0  0  1  0  0  0  0  0  0  0  0  0
    4.7953   -1.4510   -2.1169 C   0  0  2  0  0  0  0  0  0  0  0  0
    2.9973   -2.3010   -0.5509 C   0  0  0  0  0  0  0  0  0  0  0  0
    2.3792   -0.1281   -0.0578 C   0  0  2  0  0  0  0  0  0  0  0  0
    4.1865    0.6865   -1.6427 C   0  0  0  0  0  0  0  0  0  0  0  0
    5.0054   -0.0888   -2.5252 O   0  0  0  0  0  0  0  0  0  0  0  0
    2.9351   -1.3309    0.4969 O   0  0  0  0  0  0  0  0  0  0  0  0
    5.2753   -2.4458   -3.1518 C   0  0  0  0  0  0  0  0  0  0  0  0
    5.6709   -3.7316   -2.7348 C   0  0  0  0  0  0  0  0  0  0  0  0
    5.3475   -2.1201   -4.5255 C   0  0  0  0  0  0  0  0  0  0  0  0
    6.1407   -4.6181   -3.6819 C   0  0  0  0  0  0  0  0  0  0  0  0
    5.8281   -3.0415   -5.4670 C   0  0  0  0  0  0  0  0  0  0  0  0
    6.2203   -4.2828   -5.0103 C   0  0  0  0  0  0  0  0  0  0  0  0
    6.5733   -5.8838   -3.4360 O   0  0  0  0  0  0  0  0  0  0  0  0
    6.7237   -5.2924   -5.7703 O   0  0  0  0  0  0  0  0  0  0  0  0
    6.9487   -6.3026   -4.7645 C   0  0  0  0  0  0  0  0  0  0  0  0
    0.3031   -0.1050    1.1533 C   0  0  0  0  0  0  0  0  0  0  0  0
   -1.0903    0.0519    1.1030 C   0  0  0  0  0  0  0  0  0  0  0  0
    0.9341   -0.2707    2.4025 C   0  0  0  0  0  0  0  0  0  0  0  0
   -1.7986    0.0090    2.2900 C   0  0  0  0  0  0  0  0  0  0  0  0
    0.1928   -0.3232    3.5883 C   0  0  0  0  0  0  0  0  0  0  0  0
   -1.1733   -0.1909    3.5002 C   0  0  0  0  0  0  0  0  0  0  0  0
   -3.1501    0.1182    2.4250 O   0  0  0  0  0  0  0  0  0  0  0  0
   -2.0432   -0.2396    4.5400 O   0  0  0  0  0  0  0  0  0  0  0  0
   -3.2946   -0.0373    3.8544 C   0  0  0  0  0  0  0  0  0  0  0  0
    2.7351   -1.9311   -2.6646 H   0  0  0  0  0  0  0  0  0  0  0  0
    2.1441    0.2770   -2.2033 H   0  0  0  0  0  0  0  0  0  0  0  0
    5.3988   -1.5889   -1.2089 H   0  0  0  0  0  0  0  0  0  0  0  0
    2.0315   -2.8117   -0.6133 H   0  0  0  0  0  0  0  0  0  0  0  0
    3.7584   -3.0462   -0.2963 H   0  0  0  0  0  0  0  0  0  0  0  0
    2.7330    0.7432    0.5066 H   0  0  0  0  0  0  0  0  0  0  0  0
    4.7255    0.8020   -0.6940 H   0  0  0  0  0  0  0  0  0  0  0  0
    4.0283    1.6816   -2.0668 H   0  0  0  0  0  0  0  0  0  0  0  0
    5.6337   -4.0282   -1.6916 H   0  0  0  0  0  0  0  0  0  0  0  0
    5.0466   -1.1306   -4.8654 H   0  0  0  0  0  0  0  0  0  0  0  0
    5.9012   -2.7876   -6.5170 H   0  0  0  0  0  0  0  0  0  0  0  0
    8.0128   -6.5670   -4.7606 H   0  0  0  0  0  0  0  0  0  0  0  0
    6.3676   -7.1940   -5.0275 H   0  0  0  0  0  0  0  0  0  0  0  0
   -1.6061    0.1956    0.1594 H   0  0  0  0  0  0  0  0  0  0  0  0
    2.0087   -0.3914    2.4860 H   0  0  0  0  0  0  0  0  0  0  0  0
    0.6779   -0.4836    4.5433 H   0  0  0  0  0  0  0  0  0  0  0  0
   -3.7676    0.8644    4.2623 H   0  0  0  0  0  0  0  0  0  0  0  0
   -3.9467   -0.8961    4.0525 H   0  0  0  0  0  0  0  0  0  0  0  0
  1 19  1  0  0  0  0
  2  3  1  0  0  0  0
  2  4  1  0  0  0  0
  2  5  1  0  0  0  0
  2 28  1  6  0  0  0
  3  6  1  0  0  0  0
  3  7  1  0  0  0  0
  3 29  1  6  0  0  0
  4  8  1  0  0  0  0
  4 10  1  0  0  0  0
  4 30  1  1  0  0  0
  5  9  1  0  0  0  0
  5 31  1  0  0  0  0
  5 32  1  0  0  0  0
  6  1  1  0  0  0  0
  6  9  1  0  0  0  0
  6 33  1  1  0  0  0
  7  8  1  0  0  0  0
  7 34  1  0  0  0  0
  7 35  1  0  0  0  0
 10 11  2  0  0  0  0
 10 12  1  0  0  0  0
 11 13  1  0  0  0  0
 11 36  1  0  0  0  0
 12 14  2  0  0  0  0
 12 37  1  0  0  0  0
 13 15  2  0  0  0  0
 13 16  1  0  0  0  0
 14 15  1  0  0  0  0
 14 38  1  0  0  0  0
 15 17  1  0  0  0  0
 16 18  1  0  0  0  0
 17 18  1  0  0  0  0
 18 39  1  0  0  0  0
 18 40  1  0  0  0  0
 19 20  2  0  0  0  0
 19 21  1  0  0  0  0
 20 22  1  0  0  0  0
 20 41  1  0  0  0  0
 21 23  2  0  0  0  0
 21 42  1  0  0  0  0
 22 24  2  0  0  0  0
 22 25  1  0  0  0  0
 23 24  1  0  0  0  0
 23 43  1  0  0  0  0
 24 26  1  0  0  0  0
 25 27  1  0  0  0  0
 26 27  1  0  0  0  0
 27 44  1  0  0  0  0
 27 45  1  0  0  0  0
M  END
>  <Mol_ID>
9712

>  <Formula>
C20H18O7

>  <MolWeight>
370.35272

>  <Cat>
E0906

>  <Name>
Sesamolin

>  <Synonyms>
NA

>  <Target>
lipid peroxidation, JNK, p38 MAPKs, caspase-3

>  <Form>
Free Base

>  <CAS>
526-07-8

>  <URL>
https://www.selleckchem.com/products/--sesamolin.html

$$$$
