Shikimic acid.cdx
 OpenBabel08302521243D

 22 22  0  0  0  0  0  0  0  0999 V2000
   -1.3662   -0.5240   -0.0599 C   0  0  0  0  0  0  0  0  0  0  0  0
   -1.1100    0.9397   -0.0094 C   0  0  3  0  0  0  0  0  0  0  0  0
    0.3540    1.3692    0.2474 C   0  0  3  0  0  0  0  0  0  0  0  0
    1.4271    0.3354   -0.1599 C   0  0  1  0  0  0  0  0  0  0  0  0
    1.0540   -1.1466    0.0371 C   0  0  0  0  0  0  0  0  0  0  0  0
   -0.4104   -1.4637   -0.0439 C   0  0  0  0  0  0  0  0  0  0  0  0
   -0.8632   -2.8804   -0.0966 C   0  0  0  0  0  0  0  0  0  0  0  0
   -2.0099   -3.2711   -0.1897 O   0  0  0  0  0  0  0  0  0  0  0  0
    0.1618   -3.7329   -0.0201 O   0  0  0  0  0  0  0  0  0  0  0  0
   -1.9546    1.4532    1.0237 O   0  0  0  0  0  0  0  0  0  0  0  0
    0.4751    1.7456    1.6374 O   0  0  0  0  0  0  0  0  0  0  0  0
    1.8489    0.5595   -1.5089 O   0  0  0  0  0  0  0  0  0  0  0  0
   -2.4165   -0.8104   -0.1107 H   0  0  0  0  0  0  0  0  0  0  0  0
   -1.4557    1.3673   -0.9569 H   0  0  0  0  0  0  0  0  0  0  0  0
    0.5225    2.2927   -0.3226 H   0  0  0  0  0  0  0  0  0  0  0  0
    2.3247    0.5186    0.4436 H   0  0  0  0  0  0  0  0  0  0  0  0
    1.5923   -1.7430   -0.7112 H   0  0  0  0  0  0  0  0  0  0  0  0
    1.4066   -1.4680    1.0252 H   0  0  0  0  0  0  0  0  0  0  0  0
   -0.2710   -4.6118   -0.0622 H   0  0  0  0  0  0  0  0  0  0  0  0
   -1.3443    1.7226    1.7427 H   0  0  0  0  0  0  0  0  0  0  0  0
    0.9794    1.0662    2.1094 H   0  0  0  0  0  0  0  0  0  0  0  0
    1.1486    0.2690   -2.1162 H   0  0  0  0  0  0  0  0  0  0  0  0
  1  2  1  0  0  0  0
  1 13  1  0  0  0  0
  2  3  1  0  0  0  0
  2 10  1  0  0  0  0
  2 14  1  0  0  0  0
  3  4  1  0  0  0  0
  3 11  1  0  0  0  0
  3 15  1  0  0  0  0
  4  5  1  0  0  0  0
  4 12  1  0  0  0  0
  4 16  1  1  0  0  0
  5  6  1  0  0  0  0
  5 17  1  0  0  0  0
  5 18  1  0  0  0  0
  6  1  2  0  0  0  0
  6  7  1  0  0  0  0
  7  8  2  0  0  0  0
  7  9  1  0  0  0  0
  9 19  1  0  0  0  0
 10 20  1  0  0  0  0
 11 21  1  0  0  0  0
 12 22  1  0  0  0  0
M  END
>  <Mol_ID>
480

>  <Formula>
C7H10O5

>  <MolWeight>
174.1513

>  <Cat>
S2356

>  <Name>
Shikimic Acid

>  <Synonyms>
Shikimate

>  <Target>
Others

>  <Form>
free base

>  <CAS>
138-59-0

>  <URL>
http://selleckchem.com/products/Shikimic-acid(Shikimate).html

$$$$
