SHP099.cdx
 OpenBabel08302520433D

 42 44  0  0  0  0  0  0  0  0999 V2000
    1.3460   -0.2037    0.2113 C   0  0  0  0  0  0  0  0  0  0  0  0
    0.8630    0.9109   -0.4602 C   0  0  0  0  0  0  0  0  0  0  0  0
   -0.5082    1.1112   -0.6072 C   0  0  0  0  0  0  0  0  0  0  0  0
   -1.4372    0.1783   -0.0907 C   0  0  0  0  0  0  0  0  0  0  0  0
   -0.9148   -0.9584    0.5485 C   0  0  0  0  0  0  0  0  0  0  0  0
    0.4454   -1.1539    0.7067 C   0  0  0  0  0  0  0  0  0  0  0  0
   -2.8883    0.4086   -0.2132 C   0  0  0  0  0  0  0  0  0  0  0  0
   -3.2611    1.1233   -1.3045 N   0  0  0  0  0  0  0  0  0  0  0  0
   -4.5830    1.3454   -1.4155 C   0  0  0  0  0  0  0  0  0  0  0  0
   -5.5449    0.9320   -0.4948 C   0  0  0  0  0  0  0  0  0  0  0  0
   -5.1712    0.2061    0.5861 N   0  0  0  0  0  0  0  0  0  0  0  0
   -3.8466   -0.0470    0.7239 C   0  0  0  0  0  0  0  0  0  0  0  0
   -3.5198   -0.8728    1.8042 N   0  0  0  0  0  0  0  0  0  0  0  0
   -6.8749    1.2327   -0.7193 N   0  0  0  0  0  0  0  0  0  0  0  0
   -7.9310    0.3718   -0.2325 C   0  0  0  0  0  0  0  0  0  0  0  0
   -8.9894    0.2788   -1.3418 C   0  0  0  0  0  0  0  0  0  0  0  0
   -9.4787    1.6733   -1.8077 C   0  0  0  0  0  0  0  0  0  0  0  0
   -8.2698    2.5813   -2.1278 C   0  0  0  0  0  0  0  0  0  0  0  0
   -7.2545    2.6177   -0.9827 C   0  0  0  0  0  0  0  0  0  0  0  0
  -10.3630    1.5249   -3.0559 C   0  0  0  0  0  0  0  0  0  0  0  0
  -10.2943    2.2934   -0.7494 N   0  0  0  0  0  0  0  0  0  0  0  0
    2.4080   -0.3665    0.3222 H   0  0  0  0  0  0  0  0  0  0  0  0
    1.5620    1.6471   -0.8554 H   0  0  0  0  0  0  0  0  0  0  0  0
   -0.8628    2.0036   -1.1121 H   0  0  0  0  0  0  0  0  0  0  0  0
   -1.5796   -1.7178    0.9458 H   0  0  0  0  0  0  0  0  0  0  0  0
    0.8097   -2.0361    1.2233 H   0  0  0  0  0  0  0  0  0  0  0  0
   -4.8777    1.8852   -2.3136 H   0  0  0  0  0  0  0  0  0  0  0  0
   -4.3143   -0.9979    2.3989 H   0  0  0  0  0  0  0  0  0  0  0  0
   -2.6805   -0.5779    2.2955 H   0  0  0  0  0  0  0  0  0  0  0  0
   -7.5706   -0.6414   -0.0131 H   0  0  0  0  0  0  0  0  0  0  0  0
   -8.3706    0.7730    0.6896 H   0  0  0  0  0  0  0  0  0  0  0  0
   -8.5474   -0.2483   -2.2031 H   0  0  0  0  0  0  0  0  0  0  0  0
   -9.8300   -0.3385   -1.0044 H   0  0  0  0  0  0  0  0  0  0  0  0
   -7.7575    2.1898   -3.0172 H   0  0  0  0  0  0  0  0  0  0  0  0
   -8.5900    3.6011   -2.3779 H   0  0  0  0  0  0  0  0  0  0  0  0
   -7.6804    3.0810   -0.0836 H   0  0  0  0  0  0  0  0  0  0  0  0
   -6.4077    3.2438   -1.2760 H   0  0  0  0  0  0  0  0  0  0  0  0
  -11.2408    0.9001   -2.8525 H   0  0  0  0  0  0  0  0  0  0  0  0
  -10.7212    2.4988   -3.4102 H   0  0  0  0  0  0  0  0  0  0  0  0
   -9.8111    1.0574   -3.8796 H   0  0  0  0  0  0  0  0  0  0  0  0
  -10.6338    3.2026   -1.0622 H   0  0  0  0  0  0  0  0  0  0  0  0
  -11.1281    1.7287   -0.5806 H   0  0  0  0  0  0  0  0  0  0  0  0
  1  2  2  0  0  0  0
  1 22  1  0  0  0  0
  2  3  1  0  0  0  0
  2 23  1  0  0  0  0
  3  4  2  0  0  0  0
  3 24  1  0  0  0  0
  4  5  1  0  0  0  0
  4  7  1  0  0  0  0
  5  6  2  0  0  0  0
  5 25  1  0  0  0  0
  6  1  1  0  0  0  0
  6 26  1  0  0  0  0
  7  8  2  0  0  0  0
  8  9  1  0  0  0  0
  9 10  2  0  0  0  0
  9 27  1  0  0  0  0
 10 11  1  0  0  0  0
 10 14  1  0  0  0  0
 11 12  2  0  0  0  0
 12  7  1  0  0  0  0
 12 13  1  0  0  0  0
 13 28  1  0  0  0  0
 13 29  1  0  0  0  0
 14 15  1  0  0  0  0
 15 16  1  0  0  0  0
 15 30  1  0  0  0  0
 15 31  1  0  0  0  0
 16 17  1  0  0  0  0
 16 32  1  0  0  0  0
 16 33  1  0  0  0  0
 17 18  1  0  0  0  0
 17 20  1  0  0  0  0
 17 21  1  0  0  0  0
 18 19  1  0  0  0  0
 18 34  1  0  0  0  0
 18 35  1  0  0  0  0
 19 14  1  0  0  0  0
 19 36  1  0  0  0  0
 19 37  1  0  0  0  0
 20 38  1  0  0  0  0
 20 39  1  0  0  0  0
 20 40  1  0  0  0  0
 21 41  1  0  0  0  0
 21 42  1  0  0  0  0
M  END
>  <Mol_ID>
4196

>  <Formula>
C16H20Cl3N5

>  <MolWeight>
388.7225

>  <Cat>
S8278

>  <Name>
SHP099 HCl

>  <Synonyms>
N/A

>  <Target>
phosphatase

>  <Form>
Dihydrochloride

>  <CAS>
2200214-93-1

>  <URL>
http://selleckchem.com/products/shp099-dihydrochloride.html

$$$$
