Silibinin.cdx
 OpenBabel08302521243D

 57 61  0  0  0  0  0  0  0  0999 V2000
    2.2227    0.6810   -0.3879 C   0  0  2  0  0  0  0  0  0  0  0  0
    2.1805   -0.6481    0.3973 C   0  0  2  0  0  0  0  0  0  0  0  0
    1.0459   -1.4248   -0.0295 O   0  0  0  0  0  0  0  0  0  0  0  0
   -0.0983   -0.6705   -0.1027 C   0  0  0  0  0  0  0  0  0  0  0  0
   -0.0997    0.7245   -0.1029 C   0  0  0  0  0  0  0  0  0  0  0  0
    1.0419    1.4772   -0.1538 O   0  0  0  0  0  0  0  0  0  0  0  0
   -1.2961   -1.3751   -0.1227 C   0  0  0  0  0  0  0  0  0  0  0  0
   -2.5165   -0.6887   -0.0714 C   0  0  0  0  0  0  0  0  0  0  0  0
   -2.5082    0.7153   -0.0234 C   0  0  0  0  0  0  0  0  0  0  0  0
   -1.3031    1.4184   -0.0457 C   0  0  0  0  0  0  0  0  0  0  0  0
   -3.4957   -1.9499    2.3635 O   0  0  0  0  0  0  0  0  0  0  0  0
   -3.8879   -2.4800    1.1041 C   0  0  2  0  0  0  0  0  0  0  0  0
   -3.8275   -1.4457   -0.0318 C   0  0  2  0  0  0  0  0  0  0  0  0
   -5.3282   -2.9688    1.0582 C   0  0  0  0  0  0  0  0  0  0  0  0
   -5.7680   -3.4197   -0.2872 C   0  0  0  0  0  0  0  0  0  0  0  0
   -5.0565   -2.9344   -1.3949 C   0  0  0  0  0  0  0  0  0  0  0  0
   -3.9894   -2.0760   -1.3149 O   0  0  0  0  0  0  0  0  0  0  0  0
   -6.8359   -4.2980   -0.4904 C   0  0  0  0  0  0  0  0  0  0  0  0
   -7.1957   -4.6858   -1.7860 C   0  0  0  0  0  0  0  0  0  0  0  0
   -6.4780   -4.1984   -2.8687 C   0  0  0  0  0  0  0  0  0  0  0  0
   -5.4033   -3.3309   -2.6876 C   0  0  0  0  0  0  0  0  0  0  0  0
    2.2703   -0.4934    1.9203 C   0  0  0  0  0  0  0  0  0  0  0  0
    3.3846    0.1320    2.4951 C   0  0  0  0  0  0  0  0  0  0  0  0
    1.2739   -0.9754    2.7904 C   0  0  0  0  0  0  0  0  0  0  0  0
    1.3445   -0.8086    4.1827 C   0  0  0  0  0  0  0  0  0  0  0  0
    2.4613   -0.1668    4.7213 C   0  0  0  0  0  0  0  0  0  0  0  0
    3.4775    0.2951    3.8804 C   0  0  0  0  0  0  0  0  0  0  0  0
    0.2564   -1.3205    4.8353 O   0  0  0  0  0  0  0  0  0  0  0  0
    0.2042   -1.2100    6.2491 C   0  0  0  0  0  0  0  0  0  0  0  0
    2.5973    0.0233    6.0673 O   0  0  0  0  0  0  0  0  0  0  0  0
    2.3762    0.4478   -1.9035 C   0  0  0  0  0  0  0  0  0  0  0  0
    2.4494    1.6977   -2.5917 O   0  0  0  0  0  0  0  0  0  0  0  0
   -6.0791   -2.9365    2.0248 O   0  0  0  0  0  0  0  0  0  0  0  0
   -7.5141   -4.8267    0.5717 O   0  0  0  0  0  0  0  0  0  0  0  0
   -6.8607   -4.6024   -4.1126 O   0  0  0  0  0  0  0  0  0  0  0  0
    3.0640    1.3014   -0.0590 H   0  0  0  0  0  0  0  0  0  0  0  0
    3.0572   -1.2448    0.1120 H   0  0  0  0  0  0  0  0  0  0  0  0
   -1.2669   -2.4620   -0.1316 H   0  0  0  0  0  0  0  0  0  0  0  0
   -3.4391    1.2755    0.0373 H   0  0  0  0  0  0  0  0  0  0  0  0
   -1.3039    2.5042   -0.0089 H   0  0  0  0  0  0  0  0  0  0  0  0
   -3.8652   -1.0565    2.4627 H   0  0  0  0  0  0  0  0  0  0  0  0
   -3.2481   -3.3491    0.9086 H   0  0  0  0  0  0  0  0  0  0  0  0
   -4.6389   -0.7120    0.0868 H   0  0  0  0  0  0  0  0  0  0  0  0
   -8.0229   -5.3746   -1.9629 H   0  0  0  0  0  0  0  0  0  0  0  0
   -4.8381   -2.9507   -3.5339 H   0  0  0  0  0  0  0  0  0  0  0  0
    4.1971    0.5009    1.8732 H   0  0  0  0  0  0  0  0  0  0  0  0
    0.3996   -1.4927    2.4000 H   0  0  0  0  0  0  0  0  0  0  0  0
    4.3546    0.7897    4.2878 H   0  0  0  0  0  0  0  0  0  0  0  0
    1.0139   -1.7768    6.7188 H   0  0  0  0  0  0  0  0  0  0  0  0
    0.1940   -0.1631    6.5688 H   0  0  0  0  0  0  0  0  0  0  0  0
   -0.7384   -1.6562    6.5825 H   0  0  0  0  0  0  0  0  0  0  0  0
    3.4312    0.4884    6.2406 H   0  0  0  0  0  0  0  0  0  0  0  0
    3.2940   -0.1073   -2.1192 H   0  0  0  0  0  0  0  0  0  0  0  0
    1.5348   -0.1044   -2.3336 H   0  0  0  0  0  0  0  0  0  0  0  0
    1.6326    2.1794   -2.3584 H   0  0  0  0  0  0  0  0  0  0  0  0
   -8.2638   -5.3598    0.2603 H   0  0  0  0  0  0  0  0  0  0  0  0
   -6.2833   -4.1892   -4.7774 H   0  0  0  0  0  0  0  0  0  0  0  0
  1  2  1  0  0  0  0
  1 36  1  1  0  0  0
  1 31  1  0  0  0  0
  2  3  1  0  0  0  0
  2 37  1  6  0  0  0
  2 22  1  0  0  0  0
  3  4  1  0  0  0  0
  4  5  2  0  0  0  0
  4  7  1  0  0  0  0
  5  6  1  0  0  0  0
  6  1  1  0  0  0  0
  7  8  2  0  0  0  0
  7 38  1  0  0  0  0
  8  9  1  0  0  0  0
  9 10  2  0  0  0  0
  9 39  1  0  0  0  0
 10  5  1  0  0  0  0
 10 40  1  0  0  0  0
 11 41  1  0  0  0  0
 12 13  1  0  0  0  0
 12 14  1  0  0  0  0
 12 42  1  6  0  0  0
 12 11  1  0  0  0  0
 13  8  1  0  0  0  0
 13 43  1  1  0  0  0
 14 15  1  0  0  0  0
 14 33  2  0  0  0  0
 15 16  2  0  0  0  0
 15 18  1  0  0  0  0
 16 17  1  0  0  0  0
 17 13  1  0  0  0  0
 18 19  2  0  0  0  0
 18 34  1  0  0  0  0
 19 20  1  0  0  0  0
 19 44  1  0  0  0  0
 20 21  2  0  0  0  0
 20 35  1  0  0  0  0
 21 16  1  0  0  0  0
 21 45  1  0  0  0  0
 22 23  2  0  0  0  0
 22 24  1  0  0  0  0
 23 46  1  0  0  0  0
 24 25  2  0  0  0  0
 24 47  1  0  0  0  0
 25 26  1  0  0  0  0
 25 28  1  0  0  0  0
 26 27  2  0  0  0  0
 26 30  1  0  0  0  0
 27 23  1  0  0  0  0
 27 48  1  0  0  0  0
 28 29  1  0  0  0  0
 29 49  1  0  0  0  0
 29 50  1  0  0  0  0
 29 51  1  0  0  0  0
 30 52  1  0  0  0  0
 31 32  1  0  0  0  0
 31 53  1  0  0  0  0
 31 54  1  0  0  0  0
 32 55  1  0  0  0  0
 34 56  1  0  0  0  0
 35 57  1  0  0  0  0
M  END
>  <Mol_ID>
481

>  <Formula>
C25H22O10

>  <MolWeight>
482.43618

>  <Cat>
S2357

>  <Name>
Silibinin (NSC 651520)

>  <Synonyms>
Silybin, Silibinin A, Silymarin I, Flavobin

>  <Target>
Others

>  <Form>
free base

>  <CAS>
22888-70-6

>  <URL>
http://selleckchem.com/products/Silibinin(Silybin).html

$$$$
