Silydianin
 OpenBabel08302521333D

 57 62  0  0  0  0  0  0  0  0999 V2000
    1.0594    3.3244    3.0306 O   0  0  0  0  0  0  0  0  0  0  0  0
   -0.0679    0.6208    3.5070 O   0  0  0  0  0  0  0  0  0  0  0  0
    2.2934    1.2921   -2.6275 O   0  0  0  0  0  0  0  0  0  0  0  0
    5.0178    1.6647   -2.2955 O   0  0  0  0  0  0  0  0  0  0  0  0
   -2.1887   -0.6741   -3.6012 O   0  0  0  0  0  0  0  0  0  0  0  0
   -1.4418    0.3634   -4.2393 C   0  0  0  0  0  0  0  0  0  0  0  0
   -4.1461   -2.2647   -2.6120 O   0  0  0  0  0  0  0  0  0  0  0  0
    6.7549    0.0762   -0.4657 O   0  0  0  0  0  0  0  0  0  0  0  0
    6.1358    1.6323    4.0215 O   0  0  0  0  0  0  0  0  0  0  0  0
    0.0434    3.0449    0.7956 C   0  0  2  0  0  0  0  0  0  0  0  0
   -1.4615    3.0014    0.4585 C   0  0  1  0  0  0  0  0  0  0  0  0
    0.8342    1.9396    0.1276 C   0  0  0  0  0  0  0  0  0  0  0  0
   -0.0603    2.8326    2.3370 C   0  0  1  0  0  0  0  0  0  0  0  0
   -2.0470    1.5834    0.7785 C   0  0  2  0  0  0  0  0  0  0  0  0
   -1.9305    3.9756    1.5289 C   0  0  0  0  0  0  0  0  0  0  0  0
    0.3036    0.7136    0.2957 C   0  0  0  0  0  0  0  0  0  0  0  0
   -0.3379    1.2873    2.5096 C   0  0  0  0  0  0  0  0  0  0  0  0
   -1.2260    3.5863    2.7211 O   0  0  0  0  0  0  0  0  0  0  0  0
   -0.8920    0.6505    1.2305 C   0  0  1  0  0  0  0  0  0  0  0  0
    2.1988    2.3010   -0.4183 C   0  0  1  0  0  0  0  0  0  0  0  0
    2.9191    2.7071    0.7669 O   0  0  0  0  0  0  0  0  0  0  0  0
    2.8532    1.2351   -1.3136 C   0  0  2  0  0  0  0  0  0  0  0  0
    4.1092    2.0998    1.0396 C   0  0  0  0  0  0  0  0  0  0  0  0
    4.3422    1.4557   -1.2845 C   0  0  0  0  0  0  0  0  0  0  0  0
    4.8907    1.4704    0.0761 C   0  0  0  0  0  0  0  0  0  0  0  0
    4.5390    2.1396    2.3652 C   0  0  0  0  0  0  0  0  0  0  0  0
    6.0699    0.8238    0.4463 C   0  0  0  0  0  0  0  0  0  0  0  0
    5.7499    1.5480    2.7172 C   0  0  0  0  0  0  0  0  0  0  0  0
    6.5223    0.8833    1.7676 C   0  0  0  0  0  0  0  0  0  0  0  0
   -2.8375    0.8899   -0.3115 C   0  0  0  0  0  0  0  0  0  0  0  0
   -2.2833    0.7009   -1.5834 C   0  0  0  0  0  0  0  0  0  0  0  0
   -4.0049    0.1909    0.0434 C   0  0  0  0  0  0  0  0  0  0  0  0
   -2.7552   -0.3200   -2.4024 C   0  0  0  0  0  0  0  0  0  0  0  0
   -4.4935   -0.8178   -0.7802 C   0  0  0  0  0  0  0  0  0  0  0  0
   -3.8106   -1.1164   -1.9506 C   0  0  0  0  0  0  0  0  0  0  0  0
    1.6955    3.6732    2.3867 H   0  0  0  0  0  0  0  0  0  0  0  0
    2.7808    1.9921   -3.1047 H   0  0  0  0  0  0  0  0  0  0  0  0
   -0.4774    0.5094   -3.7418 H   0  0  0  0  0  0  0  0  0  0  0  0
   -1.2456    0.0543   -5.2669 H   0  0  0  0  0  0  0  0  0  0  0  0
   -2.0115    1.3005   -4.2765 H   0  0  0  0  0  0  0  0  0  0  0  0
   -3.3784   -2.4524   -3.1863 H   0  0  0  0  0  0  0  0  0  0  0  0
    7.1558   -0.6855   -0.0132 H   0  0  0  0  0  0  0  0  0  0  0  0
    7.0156    1.2352    4.1340 H   0  0  0  0  0  0  0  0  0  0  0  0
    0.4616    4.0311    0.5524 H   0  0  0  0  0  0  0  0  0  0  0  0
   -1.6984    3.3493   -0.5515 H   0  0  0  0  0  0  0  0  0  0  0  0
   -2.7363    1.6840    1.6297 H   0  0  0  0  0  0  0  0  0  0  0  0
   -3.0082    3.9499    1.7085 H   0  0  0  0  0  0  0  0  0  0  0  0
   -1.6415    5.0049    1.2868 H   0  0  0  0  0  0  0  0  0  0  0  0
    0.7464   -0.2103   -0.0609 H   0  0  0  0  0  0  0  0  0  0  0  0
   -1.2071   -0.3820    1.4118 H   0  0  0  0  0  0  0  0  0  0  0  0
    2.0818    3.2081   -1.0255 H   0  0  0  0  0  0  0  0  0  0  0  0
    2.6978    0.2136   -0.9456 H   0  0  0  0  0  0  0  0  0  0  0  0
    3.9333    2.6149    3.1327 H   0  0  0  0  0  0  0  0  0  0  0  0
    7.4588    0.4129    2.0495 H   0  0  0  0  0  0  0  0  0  0  0  0
   -1.4048    1.2697   -1.8661 H   0  0  0  0  0  0  0  0  0  0  0  0
   -4.4805    0.3505    1.0098 H   0  0  0  0  0  0  0  0  0  0  0  0
   -5.3404   -1.4221   -0.4694 H   0  0  0  0  0  0  0  0  0  0  0  0
  1 36  1  0  0  0  0
  2 17  2  0  0  0  0
  3 37  1  0  0  0  0
  4 24  2  0  0  0  0
  5  6  1  0  0  0  0
  5 33  1  0  0  0  0
  6 38  1  0  0  0  0
  6 39  1  0  0  0  0
  6 40  1  0  0  0  0
  7 35  1  0  0  0  0
  7 41  1  0  0  0  0
  8 27  1  0  0  0  0
  8 42  1  0  0  0  0
  9 28  1  0  0  0  0
  9 43  1  0  0  0  0
 10 11  1  0  0  0  0
 10 12  1  0  0  0  0
 10 13  1  0  0  0  0
 10 44  1  6  0  0  0
 11 14  1  0  0  0  0
 11 15  1  0  0  0  0
 11 45  1  6  0  0  0
 12 16  2  0  0  0  0
 13  1  1  1  0  0  0
 13 17  1  0  0  0  0
 13 18  1  0  0  0  0
 14 19  1  0  0  0  0
 14 30  1  0  0  0  0
 14 46  1  1  0  0  0
 15 18  1  0  0  0  0
 15 47  1  0  0  0  0
 15 48  1  0  0  0  0
 16 49  1  0  0  0  0
 19 16  1  0  0  0  0
 19 17  1  0  0  0  0
 19 50  1  1  0  0  0
 20 12  1  0  0  0  0
 20 21  1  0  0  0  0
 20 22  1  0  0  0  0
 20 51  1  6  0  0  0
 21 23  1  0  0  0  0
 22  3  1  0  0  0  0
 22 24  1  0  0  0  0
 22 52  1  1  0  0  0
 23 25  2  0  0  0  0
 23 26  1  0  0  0  0
 24 25  1  0  0  0  0
 25 27  1  0  0  0  0
 26 28  2  0  0  0  0
 26 53  1  0  0  0  0
 27 29  2  0  0  0  0
 28 29  1  0  0  0  0
 29 54  1  0  0  0  0
 30 31  2  0  0  0  0
 30 32  1  0  0  0  0
 31 33  1  0  0  0  0
 31 55  1  0  0  0  0
 32 34  2  0  0  0  0
 32 56  1  0  0  0  0
 33 35  2  0  0  0  0
 34 35  1  0  0  0  0
 34 57  1  0  0  0  0
M  END
>  <Mol_ID>
6332

>  <Formula>
C25H22O10

>  <MolWeight>
482.43618

>  <Cat>
E0758

>  <Name>
Silydianin

>  <Synonyms>
N/A

>  <Target>
phosphatase

>  <Form>
free base

>  <CAS>
29782-68-1

>  <URL>
http://www.selleckchem.com/products/silydianin.html

$$$$
