Silybin
 OpenBabel08302521573D

 57 61  0  0  1  0  0  0  0  0999 V2000
   -9.3880    0.8659    4.5159 C   0  0  0  0  0  0  0  0  0  0  0  0
   -9.0880   -0.1037    5.5009 O   0  0  0  0  0  0  0  0  0  0  0  0
   -9.8609    8.0199    5.7574 O   0  0  0  0  0  0  0  0  0  0  0  0
   -8.6740    8.4589    5.1233 C   0  0  0  0  0  0  0  0  0  0  0  0
  -12.1285    7.3948    6.9462 O   0  0  0  0  0  0  0  0  0  0  0  0
   -4.9604    4.8165   -1.3965 O   0  0  0  0  0  0  0  0  0  0  0  0
   -5.1210    1.7369   -1.6342 O   0  0  0  0  0  0  0  0  0  0  0  0
   -5.0822   -0.2110    0.6016 O   0  0  0  0  0  0  0  0  0  0  0  0
   -1.2674    0.5502    3.2767 O   0  0  0  0  0  0  0  0  0  0  0  0
   -9.7530    3.2543    3.9241 C   0  0  3  0  0  0  0  0  0  0  0  0
   -9.2307    2.3168    5.0287 C   0  0  3  0  0  0  0  0  0  0  0  0
   -8.8860    3.3660    2.8257 O   0  0  0  0  0  0  0  0  0  0  0  0
   -7.8846    2.6445    5.4477 O   0  0  0  0  0  0  0  0  0  0  0  0
   -7.5705    3.1887    3.1313 C   0  0  0  0  0  0  0  0  0  0  0  0
   -7.0664    3.0267    4.4143 C   0  0  0  0  0  0  0  0  0  0  0  0
   -6.7366    3.3099    2.0681 C   0  0  0  0  0  0  0  0  0  0  0  0
   -5.7036    3.2590    4.6176 C   0  0  0  0  0  0  0  0  0  0  0  0
   -5.3911    3.6798    2.2132 C   0  0  0  0  0  0  0  0  0  0  0  0
   -4.8782    3.6531    3.5354 C   0  0  0  0  0  0  0  0  0  0  0  0
  -10.3626    4.5307    4.5269 C   0  0  0  0  0  0  0  0  0  0  0  0
   -9.7296    5.7788    4.6618 C   0  0  0  0  0  0  0  0  0  0  0  0
  -11.6356    4.3272    5.1226 C   0  0  0  0  0  0  0  0  0  0  0  0
  -10.3404    6.7700    5.4522 C   0  0  0  0  0  0  0  0  0  0  0  0
  -12.2230    5.2999    5.8952 C   0  0  0  0  0  0  0  0  0  0  0  0
  -11.5699    6.4930    6.0868 C   0  0  0  0  0  0  0  0  0  0  0  0
   -4.6851    4.2665    0.9916 C   0  0  1  0  0  0  0  0  0  0  0  0
   -3.2282    4.0872    0.9459 O   0  0  0  0  0  0  0  0  0  0  0  0
   -5.2372    3.8504   -0.3991 C   0  0  2  0  0  0  0  0  0  0  0  0
   -2.9517    2.7350    0.9242 C   0  0  0  0  0  0  0  0  0  0  0  0
   -4.7573    2.4164   -0.6811 C   0  0  0  0  0  0  0  0  0  0  0  0
   -3.8471    1.8505    0.3266 C   0  0  0  0  0  0  0  0  0  0  0  0
   -1.9764    2.2955    1.8099 C   0  0  0  0  0  0  0  0  0  0  0  0
   -4.0117    0.5919    0.8702 C   0  0  0  0  0  0  0  0  0  0  0  0
   -2.0985    1.0082    2.2937 C   0  0  0  0  0  0  0  0  0  0  0  0
   -3.1467    0.1744    1.8885 C   0  0  0  0  0  0  0  0  0  0  0  0
  -10.4303    0.7056    4.2037 H   0  0  0  0  0  0  0  0  0  0  0  0
   -8.7590    0.6698    3.6386 H   0  0  0  0  0  0  0  0  0  0  0  0
   -9.6945    0.0302    6.2465 H   0  0  0  0  0  0  0  0  0  0  0  0
   -7.8375    7.7848    5.3287 H   0  0  0  0  0  0  0  0  0  0  0  0
   -8.8306    8.5913    4.0484 H   0  0  0  0  0  0  0  0  0  0  0  0
   -8.4202    9.4361    5.5456 H   0  0  0  0  0  0  0  0  0  0  0  0
  -11.4565    8.0983    7.0442 H   0  0  0  0  0  0  0  0  0  0  0  0
   -4.1297    5.2747   -1.1611 H   0  0  0  0  0  0  0  0  0  0  0  0
   -5.6875    0.2459   -0.0144 H   0  0  0  0  0  0  0  0  0  0  0  0
   -0.4707    1.1077    3.2926 H   0  0  0  0  0  0  0  0  0  0  0  0
  -10.6338    2.7783    3.4621 H   0  0  0  0  0  0  0  0  0  0  0  0
   -9.8316    2.3959    5.9343 H   0  0  0  0  0  0  0  0  0  0  0  0
   -7.2163    3.1819    1.0938 H   0  0  0  0  0  0  0  0  0  0  0  0
   -5.2970    3.1821    5.6156 H   0  0  0  0  0  0  0  0  0  0  0  0
   -3.8474    3.9406    3.7383 H   0  0  0  0  0  0  0  0  0  0  0  0
   -8.7753    5.9603    4.1776 H   0  0  0  0  0  0  0  0  0  0  0  0
  -12.1518    3.3732    5.0105 H   0  0  0  0  0  0  0  0  0  0  0  0
  -13.1762    5.1144    6.3891 H   0  0  0  0  0  0  0  0  0  0  0  0
   -4.8201    5.3422    1.0944 H   0  0  0  0  0  0  0  0  0  0  0  0
   -6.3223    3.7854   -0.4155 H   0  0  0  0  0  0  0  0  0  0  0  0
   -1.2503    2.9974    2.2081 H   0  0  0  0  0  0  0  0  0  0  0  0
   -3.3233   -0.7622    2.4011 H   0  0  0  0  0  0  0  0  0  0  0  0
  1  2  1  0  0  0  0
  1 11  1  0  0  0  0
  1 36  1  0  0  0  0
  1 37  1  0  0  0  0
  2 38  1  0  0  0  0
  3  4  1  0  0  0  0
  3 23  1  0  0  0  0
  4 39  1  0  0  0  0
  4 40  1  0  0  0  0
  4 41  1  0  0  0  0
  5 25  1  0  0  0  0
  5 42  1  0  0  0  0
  6 43  1  0  0  0  0
  7 30  2  0  0  0  0
  8 33  1  0  0  0  0
  8 44  1  0  0  0  0
  9 34  1  0  0  0  0
  9 45  1  0  0  0  0
 10 11  1  0  0  0  0
 10 12  1  0  0  0  0
 10 20  1  0  0  0  0
 10 46  1  0  0  0  0
 11 13  1  0  0  0  0
 11 47  1  0  0  0  0
 12 14  1  0  0  0  0
 13 15  1  0  0  0  0
 14 15  2  0  0  0  0
 14 16  1  0  0  0  0
 15 17  1  0  0  0  0
 16 18  2  0  0  0  0
 16 48  1  0  0  0  0
 17 19  2  0  0  0  0
 17 49  1  0  0  0  0
 18 19  1  0  0  0  0
 19 50  1  0  0  0  0
 20 21  2  0  0  0  0
 20 22  1  0  0  0  0
 21 23  1  0  0  0  0
 21 51  1  0  0  0  0
 22 24  2  0  0  0  0
 22 52  1  0  0  0  0
 23 25  2  0  0  0  0
 24 25  1  0  0  0  0
 24 53  1  0  0  0  0
 26 27  1  0  0  0  0
 26 28  1  0  0  0  0
 26 54  1  1  0  0  0
 26 18  1  0  0  0  0
 27 29  1  0  0  0  0
 28  6  1  0  0  0  0
 28 30  1  0  0  0  0
 28 55  1  1  0  0  0
 29 31  2  0  0  0  0
 29 32  1  0  0  0  0
 30 31  1  0  0  0  0
 31 33  1  0  0  0  0
 32 34  2  0  0  0  0
 32 56  1  0  0  0  0
 33 35  2  0  0  0  0
 34 35  1  0  0  0  0
 35 57  1  0  0  0  0
M  END
>  <Mol_ID>
10064

>  <Formula>
C25H22O10

>  <MolWeight>
482.43618

>  <Cat>
E5670

>  <Name>
Silybin

>  <Synonyms>
Silibinin

>  <Target>
Apoptosis

>  <Form>
Free Base

>  <CAS>
802918-57-6

>  <URL>
https://www.selleckchem.com/products/silybin.html

$$$$
