Simufilam dihydrochloride
 OpenBabel08302521313D

 40 42  0  0  0  0  0  0  0  0999 V2000
    1.3858    0.5292   -0.4878 O   0  0  0  0  0  0  0  0  0  0  0  0
    3.2959   -0.8099   -0.5831 N   0  0  0  0  0  0  0  0  0  0  0  0
    4.4808    0.1009    1.1745 N   0  0  0  0  0  0  0  0  0  0  0  0
    5.9706   -3.5897   -0.2660 N   0  0  0  0  0  0  0  0  0  0  0  0
    4.4751   -1.0494    0.2326 C   0  0  0  0  0  0  0  0  0  0  0  0
    5.8143   -1.0757   -0.5216 C   0  0  0  0  0  0  0  0  0  0  0  0
    4.3417   -2.2905    1.1368 C   0  0  0  0  0  0  0  0  0  0  0  0
    6.1453   -2.4311   -1.1482 C   0  0  0  0  0  0  0  0  0  0  0  0
    4.6725   -3.5934    0.4142 C   0  0  0  0  0  0  0  0  0  0  0  0
    3.3125    0.9468    0.9119 C   0  0  0  0  0  0  0  0  0  0  0  0
    2.4910    0.2058   -0.0942 C   0  0  0  0  0  0  0  0  0  0  0  0
    2.9280   -1.5151   -1.8067 C   0  0  0  0  0  0  0  0  0  0  0  0
    7.0812   -3.7524    0.6698 C   0  0  0  0  0  0  0  0  0  0  0  0
    3.3655   -0.8214   -3.0845 C   0  0  0  0  0  0  0  0  0  0  0  0
    3.7026   -1.5884   -4.2124 C   0  0  0  0  0  0  0  0  0  0  0  0
    3.3561    0.5759   -3.2188 C   0  0  0  0  0  0  0  0  0  0  0  0
    4.0574   -0.9748   -5.4162 C   0  0  0  0  0  0  0  0  0  0  0  0
    3.7137    1.1906   -4.4208 C   0  0  0  0  0  0  0  0  0  0  0  0
    4.0688    0.4143   -5.5175 C   0  0  0  0  0  0  0  0  0  0  0  0
    5.3226    0.6579    1.0521 H   0  0  0  0  0  0  0  0  0  0  0  0
    6.6306   -0.8368    0.1746 H   0  0  0  0  0  0  0  0  0  0  0  0
    5.8377   -0.2961   -1.2930 H   0  0  0  0  0  0  0  0  0  0  0  0
    5.0271   -2.2019    1.9931 H   0  0  0  0  0  0  0  0  0  0  0  0
    3.3330   -2.3598    1.5646 H   0  0  0  0  0  0  0  0  0  0  0  0
    7.1775   -2.4010   -1.5221 H   0  0  0  0  0  0  0  0  0  0  0  0
    5.5386   -2.5869   -2.0439 H   0  0  0  0  0  0  0  0  0  0  0  0
    3.8898   -3.8281   -0.3124 H   0  0  0  0  0  0  0  0  0  0  0  0
    4.6271   -4.4245    1.1299 H   0  0  0  0  0  0  0  0  0  0  0  0
    3.6304    1.8903    0.4544 H   0  0  0  0  0  0  0  0  0  0  0  0
    2.7409    1.1395    1.8194 H   0  0  0  0  0  0  0  0  0  0  0  0
    3.3297   -2.5275   -1.7758 H   0  0  0  0  0  0  0  0  0  0  0  0
    1.8362   -1.6124   -1.8390 H   0  0  0  0  0  0  0  0  0  0  0  0
    7.1833   -2.9124    1.3637 H   0  0  0  0  0  0  0  0  0  0  0  0
    6.9541   -4.6695    1.2565 H   0  0  0  0  0  0  0  0  0  0  0  0
    8.0253   -3.8657    0.1258 H   0  0  0  0  0  0  0  0  0  0  0  0
    3.6819   -2.6760   -4.1634 H   0  0  0  0  0  0  0  0  0  0  0  0
    3.0510    1.2172   -2.3984 H   0  0  0  0  0  0  0  0  0  0  0  0
    4.3130   -1.5821   -6.2807 H   0  0  0  0  0  0  0  0  0  0  0  0
    3.6965    2.2737   -4.4970 H   0  0  0  0  0  0  0  0  0  0  0  0
    4.3373    0.8929   -6.4560 H   0  0  0  0  0  0  0  0  0  0  0  0
  1 11  2  0  0  0  0
  2  5  1  0  0  0  0
  2 11  1  0  0  0  0
  2 12  1  0  0  0  0
  3  5  1  0  0  0  0
  3 10  1  0  0  0  0
  3 20  1  0  0  0  0
  4  8  1  0  0  0  0
  4  9  1  0  0  0  0
  4 13  1  0  0  0  0
  5  6  1  0  0  0  0
  5  7  1  0  0  0  0
  6  8  1  0  0  0  0
  6 21  1  0  0  0  0
  6 22  1  0  0  0  0
  7  9  1  0  0  0  0
  7 23  1  0  0  0  0
  7 24  1  0  0  0  0
  8 25  1  0  0  0  0
  8 26  1  0  0  0  0
  9 27  1  0  0  0  0
  9 28  1  0  0  0  0
 10 11  1  0  0  0  0
 10 29  1  0  0  0  0
 10 30  1  0  0  0  0
 12 14  1  0  0  0  0
 12 31  1  0  0  0  0
 12 32  1  0  0  0  0
 13 33  1  0  0  0  0
 13 34  1  0  0  0  0
 13 35  1  0  0  0  0
 14 15  2  0  0  0  0
 14 16  1  0  0  0  0
 15 17  1  0  0  0  0
 15 36  1  0  0  0  0
 16 18  2  0  0  0  0
 16 37  1  0  0  0  0
 17 19  2  0  0  0  0
 17 38  1  0  0  0  0
 18 19  1  0  0  0  0
 18 39  1  0  0  0  0
 19 40  1  0  0  0  0
M  END
>  <Mol_ID>
6065

>  <Formula>
C15H23Cl2N3O

>  <MolWeight>
332.26862

>  <Cat>
E0076

>  <Name>
Simufilam dihydrochloride

>  <Synonyms>
PTI-125 dihydrochloride

>  <Target>
Actin

>  <Form>
Dihydrochloride

>  <CAS>
2480226-06-8

>  <URL>
http://www.selleckchem.com/products/simufilam-dihydrochloride.html

$$$$
