Simufilam
 OpenBabel08302521353D

 40 42  0  0  0  0  0  0  0  0999 V2000
    1.4243   -0.3894    0.3418 C   0  0  0  0  0  0  0  0  0  0  0  0
    1.2490   -3.2402    0.4633 O   0  0  0  0  0  0  0  0  0  0  0  0
   -2.6353    2.9392   -0.4946 C   0  0  0  0  0  0  0  0  0  0  0  0
   -1.0415   -0.6807   -0.4587 C   0  0  0  0  0  0  0  0  0  0  0  0
    0.2442   -1.1800    0.0213 N   0  0  0  0  0  0  0  0  0  0  0  0
   -1.7398   -1.9119   -0.9212 N   0  0  0  0  0  0  0  0  0  0  0  0
   -0.9981    0.3189   -1.6263 C   0  0  0  0  0  0  0  0  0  0  0  0
   -1.9406   -0.0980    0.6481 C   0  0  0  0  0  0  0  0  0  0  0  0
    0.3174   -2.5625    0.0586 C   0  0  0  0  0  0  0  0  0  0  0  0
   -0.9125   -3.0871   -0.6045 C   0  0  0  0  0  0  0  0  0  0  0  0
   -0.6420    1.7403   -1.2027 C   0  0  0  0  0  0  0  0  0  0  0  0
   -1.5930    1.3404    1.0309 C   0  0  0  0  0  0  0  0  0  0  0  0
   -1.4070    2.2767   -0.0787 N   0  0  0  0  0  0  0  0  0  0  0  0
    2.2903   -0.0522   -0.8563 C   0  0  0  0  0  0  0  0  0  0  0  0
    3.0506    1.1276   -0.8469 C   0  0  0  0  0  0  0  0  0  0  0  0
    2.3594   -0.8766   -1.9900 C   0  0  0  0  0  0  0  0  0  0  0  0
    3.7638    1.5251   -1.9803 C   0  0  0  0  0  0  0  0  0  0  0  0
    3.0639   -0.4757   -3.1253 C   0  0  0  0  0  0  0  0  0  0  0  0
    3.7484    0.7355   -3.1276 C   0  0  0  0  0  0  0  0  0  0  0  0
    2.0435   -0.9427    1.0584 H   0  0  0  0  0  0  0  0  0  0  0  0
    1.1012    0.5240    0.8493 H   0  0  0  0  0  0  0  0  0  0  0  0
   -3.3746    2.2444   -0.9024 H   0  0  0  0  0  0  0  0  0  0  0  0
   -3.0819    3.4768    0.3499 H   0  0  0  0  0  0  0  0  0  0  0  0
   -2.4194    3.7036   -1.2512 H   0  0  0  0  0  0  0  0  0  0  0  0
   -1.8712   -1.8749   -1.9259 H   0  0  0  0  0  0  0  0  0  0  0  0
   -1.9879    0.3606   -2.1040 H   0  0  0  0  0  0  0  0  0  0  0  0
   -0.3076   -0.0225   -2.4078 H   0  0  0  0  0  0  0  0  0  0  0  0
   -2.9874   -0.0989    0.3050 H   0  0  0  0  0  0  0  0  0  0  0  0
   -1.9113   -0.7274    1.5462 H   0  0  0  0  0  0  0  0  0  0  0  0
   -0.6172   -3.5934   -1.5273 H   0  0  0  0  0  0  0  0  0  0  0  0
   -1.4391   -3.7800    0.0562 H   0  0  0  0  0  0  0  0  0  0  0  0
   -0.7284    2.3983   -2.0779 H   0  0  0  0  0  0  0  0  0  0  0  0
    0.4102    1.8045   -0.9324 H   0  0  0  0  0  0  0  0  0  0  0  0
   -0.6815    1.3394    1.6369 H   0  0  0  0  0  0  0  0  0  0  0  0
   -2.3677    1.7159    1.7134 H   0  0  0  0  0  0  0  0  0  0  0  0
    3.0635    1.7667    0.0339 H   0  0  0  0  0  0  0  0  0  0  0  0
    1.8409   -1.8308   -2.0175 H   0  0  0  0  0  0  0  0  0  0  0  0
    4.3190    2.4592   -1.9726 H   0  0  0  0  0  0  0  0  0  0  0  0
    3.0677   -1.1079   -4.0092 H   0  0  0  0  0  0  0  0  0  0  0  0
    4.2777    1.0580   -4.0199 H   0  0  0  0  0  0  0  0  0  0  0  0
  1  5  1  0  0  0  0
  1 14  1  0  0  0  0
  1 20  1  0  0  0  0
  1 21  1  0  0  0  0
  2  9  2  0  0  0  0
  3 13  1  0  0  0  0
  3 22  1  0  0  0  0
  3 23  1  0  0  0  0
  3 24  1  0  0  0  0
  4  5  1  0  0  0  0
  4  6  1  0  0  0  0
  4  7  1  0  0  0  0
  4  8  1  0  0  0  0
  5  9  1  0  0  0  0
  6 10  1  0  0  0  0
  6 25  1  0  0  0  0
  7 11  1  0  0  0  0
  7 26  1  0  0  0  0
  7 27  1  0  0  0  0
  8 12  1  0  0  0  0
  8 28  1  0  0  0  0
  8 29  1  0  0  0  0
  9 10  1  0  0  0  0
 10 30  1  0  0  0  0
 10 31  1  0  0  0  0
 11 13  1  0  0  0  0
 11 32  1  0  0  0  0
 11 33  1  0  0  0  0
 12 13  1  0  0  0  0
 12 34  1  0  0  0  0
 12 35  1  0  0  0  0
 14 15  2  0  0  0  0
 14 16  1  0  0  0  0
 15 17  1  0  0  0  0
 15 36  1  0  0  0  0
 16 18  2  0  0  0  0
 16 37  1  0  0  0  0
 17 19  2  0  0  0  0
 17 38  1  0  0  0  0
 18 19  1  0  0  0  0
 18 39  1  0  0  0  0
 19 40  1  0  0  0  0
M  END
>  <Mol_ID>
6788

>  <Formula>
C15H21N3O

>  <MolWeight>
259.34674

>  <Cat>
E0077

>  <Name>
Simufilam

>  <Synonyms>
PTI-125

>  <Target>
Beta Amyloid

>  <Form>
Free base

>  <CAS>
1224591-33-6

>  <URL>
http://www.selleckchem.com/products/simufilam.html

$$$$
