Sinapaldehyde
 OpenBabel08302521373D

 27 27  0  0  0  0  0  0  0  0999 V2000
    1.0075    0.0694    0.0235 C   0  0  0  0  0  0  0  0  0  0  0  0
    2.0122    0.5798    0.7456 C   0  0  0  0  0  0  0  0  0  0  0  0
    2.7232   -0.2707    1.7189 C   0  0  0  0  0  0  0  0  0  0  0  0
    3.6485    0.1683    2.3907 O   0  0  0  0  0  0  0  0  0  0  0  0
    0.3333    1.8193   -4.5484 O   0  0  0  0  0  0  0  0  0  0  0  0
    1.4952    1.1327   -5.0001 C   0  0  0  0  0  0  0  0  0  0  0  0
   -2.7167    3.0632   -1.2069 O   0  0  0  0  0  0  0  0  0  0  0  0
   -3.1979    3.0377    0.1291 C   0  0  0  0  0  0  0  0  0  0  0  0
   -1.8317    3.1070   -3.7463 O   0  0  0  0  0  0  0  0  0  0  0  0
    0.2817    0.8838   -0.9524 C   0  0  0  0  0  0  0  0  0  0  0  0
    0.7269    0.9419   -2.2798 C   0  0  0  0  0  0  0  0  0  0  0  0
   -0.8622    1.5925   -0.5565 C   0  0  0  0  0  0  0  0  0  0  0  0
    0.0186    1.6901   -3.2185 C   0  0  0  0  0  0  0  0  0  0  0  0
   -1.5831    2.3475   -1.4847 C   0  0  0  0  0  0  0  0  0  0  0  0
   -1.1320    2.3822   -2.8104 C   0  0  0  0  0  0  0  0  0  0  0  0
    0.6788   -0.9618    0.1190 H   0  0  0  0  0  0  0  0  0  0  0  0
    2.3505    1.6066    0.6626 H   0  0  0  0  0  0  0  0  0  0  0  0
    2.3787   -1.3146    1.8044 H   0  0  0  0  0  0  0  0  0  0  0  0
    2.3951    1.5213   -4.5119 H   0  0  0  0  0  0  0  0  0  0  0  0
    1.3992    0.0519   -4.8521 H   0  0  0  0  0  0  0  0  0  0  0  0
    1.5937    1.3123   -6.0749 H   0  0  0  0  0  0  0  0  0  0  0  0
   -3.4552    2.0192    0.4382 H   0  0  0  0  0  0  0  0  0  0  0  0
   -2.4744    3.4887    0.8162 H   0  0  0  0  0  0  0  0  0  0  0  0
   -4.1129    3.6364    0.1682 H   0  0  0  0  0  0  0  0  0  0  0  0
   -1.3499    2.9791   -4.5846 H   0  0  0  0  0  0  0  0  0  0  0  0
    1.6207    0.3914   -2.5539 H   0  0  0  0  0  0  0  0  0  0  0  0
   -1.1743    1.5344    0.4812 H   0  0  0  0  0  0  0  0  0  0  0  0
  1  2  2  0  0  0  0
  1 10  1  0  0  0  0
  1 16  1  0  0  0  0
  2  3  1  0  0  0  0
  2 17  1  0  0  0  0
  3  4  2  0  0  0  0
  3 18  1  0  0  0  0
  5  6  1  0  0  0  0
  5 13  1  0  0  0  0
  6 19  1  0  0  0  0
  6 20  1  0  0  0  0
  6 21  1  0  0  0  0
  7  8  1  0  0  0  0
  7 14  1  0  0  0  0
  8 22  1  0  0  0  0
  8 23  1  0  0  0  0
  8 24  1  0  0  0  0
  9 15  1  0  0  0  0
  9 25  1  0  0  0  0
 10 11  2  0  0  0  0
 10 12  1  0  0  0  0
 11 13  1  0  0  0  0
 11 26  1  0  0  0  0
 12 14  2  0  0  0  0
 12 27  1  0  0  0  0
 13 15  2  0  0  0  0
 14 15  1  0  0  0  0
M  END
>  <Mol_ID>
7453

>  <Formula>
C11H12O4

>  <MolWeight>
208.21058

>  <Cat>
E4557

>  <Name>
Sinapaldehyde

>  <Synonyms>
Sinapaldehyde

>  <Target>
Antibacterial

>  <Form>
Free base

>  <CAS>
4206-58-0

>  <URL>
https://www.selleckchem.com/products/sinapaldehyde.html

$$$$
