SKA-31
 OpenBabel08302521323D

 22 24  0  0  0  0  0  0  0  0999 V2000
    3.3994   -0.6357   -0.0433 S   0  0  0  0  0  0  0  0  0  0  0  0
    3.1311    1.0527   -0.0919 C   0  0  0  0  0  0  0  0  0  0  0  0
    1.8790    1.4318   -0.0492 N   0  0  0  0  0  0  0  0  0  0  0  0
    1.0355    0.3182   -0.0193 C   0  0  0  0  0  0  0  0  0  0  0  0
    1.7021   -0.9083   -0.0132 C   0  0  0  0  0  0  0  0  0  0  0  0
    1.0226   -2.1355    0.0120 C   0  0  0  0  0  0  0  0  0  0  0  0
   -0.3736   -2.1227    0.0197 C   0  0  0  0  0  0  0  0  0  0  0  0
   -1.0897   -0.9232    0.0126 C   0  0  0  0  0  0  0  0  0  0  0  0
   -2.4923   -0.9222    0.0159 C   0  0  0  0  0  0  0  0  0  0  0  0
   -3.2046    0.2789    0.0092 C   0  0  0  0  0  0  0  0  0  0  0  0
   -2.5265    1.4947    0.0010 C   0  0  0  0  0  0  0  0  0  0  0  0
   -1.1278    1.5173   -0.0044 C   0  0  0  0  0  0  0  0  0  0  0  0
   -0.3961    0.3133   -0.0016 C   0  0  0  0  0  0  0  0  0  0  0  0
    4.1660    1.9063   -0.1585 N   0  0  0  0  0  0  0  0  0  0  0  0
    1.5670   -3.0748    0.0165 H   0  0  0  0  0  0  0  0  0  0  0  0
   -0.9007   -3.0752    0.0303 H   0  0  0  0  0  0  0  0  0  0  0  0
   -3.0444   -1.8594    0.0207 H   0  0  0  0  0  0  0  0  0  0  0  0
   -4.2921    0.2607    0.0088 H   0  0  0  0  0  0  0  0  0  0  0  0
   -3.0855    2.4270   -0.0032 H   0  0  0  0  0  0  0  0  0  0  0  0
   -0.6092    2.4739   -0.0130 H   0  0  0  0  0  0  0  0  0  0  0  0
    3.9780    2.8713    0.0839 H   0  0  0  0  0  0  0  0  0  0  0  0
    5.0857    1.5701    0.0993 H   0  0  0  0  0  0  0  0  0  0  0  0
  1  2  1  0  0  0  0
  1  5  1  0  0  0  0
  2  3  2  0  0  0  0
  2 14  1  0  0  0  0
  3  4  1  0  0  0  0
  4  5  2  0  0  0  0
  6  7  2  0  0  0  0
  6  5  1  0  0  0  0
  6 15  1  0  0  0  0
  7  8  1  0  0  0  0
  7 16  1  0  0  0  0
  8  9  1  0  0  0  0
  8 13  2  0  0  0  0
  9 10  2  0  0  0  0
  9 17  1  0  0  0  0
 10 11  1  0  0  0  0
 10 18  1  0  0  0  0
 11 12  2  0  0  0  0
 11 19  1  0  0  0  0
 12 13  1  0  0  0  0
 12 20  1  0  0  0  0
 13  4  1  0  0  0  0
 14 21  1  0  0  0  0
 14 22  1  0  0  0  0
M  END
>  <Mol_ID>
6155

>  <Formula>
C11H8N2S

>  <MolWeight>
200.25962

>  <Cat>
S0311

>  <Name>
SKA-31

>  <Synonyms>
Naphtho[1,2-d]thiazol-2-ylamine

>  <Target>
Potassium Channel

>  <Form>
free base

>  <CAS>
40172-65-4

>  <URL>
http://www.selleckchem.com/products/ska-31.html

$$$$
