SMCC
 OpenBabel08302521313D

 42 44  0  0  0  0  0  0  0  0999 V2000
    3.0283   -0.8900   -0.6736 O   0  0  0  0  0  0  0  0  0  0  0  0
    1.2448    0.0369    0.4294 O   0  0  0  0  0  0  0  0  0  0  0  0
    4.9366    6.7251   -2.1479 O   0  0  0  0  0  0  0  0  0  0  0  0
    1.1598    4.4097   -3.2048 O   0  0  0  0  0  0  0  0  0  0  0  0
    1.5832    0.5597   -2.6249 O   0  0  0  0  0  0  0  0  0  0  0  0
    3.5731   -3.3290   -1.8731 O   0  0  0  0  0  0  0  0  0  0  0  0
    3.2138    5.1897   -2.4297 N   0  0  0  0  0  0  0  0  0  0  0  0
    2.2051   -1.4609   -1.6546 N   0  0  0  0  0  0  0  0  0  0  0  0
    4.5556    3.7836   -0.8381 C   0  0  3  0  0  0  0  0  0  0  0  0
    3.5209    3.8080    0.2945 C   0  0  0  0  0  0  0  0  0  0  0  0
    5.3811    2.4974   -0.7194 C   0  0  0  0  0  0  0  0  0  0  0  0
    3.3760    1.2513    0.3086 C   0  0  3  0  0  0  0  0  0  0  0  0
    2.6055    2.5835    0.2909 C   0  0  0  0  0  0  0  0  0  0  0  0
    4.5197    1.2436   -0.7280 C   0  0  0  0  0  0  0  0  0  0  0  0
    3.9263    3.9355   -2.2436 C   0  0  0  0  0  0  0  0  0  0  0  0
    2.4089    0.0904    0.0538 C   0  0  0  0  0  0  0  0  0  0  0  0
    3.7834    6.4211   -2.3826 C   0  0  0  0  0  0  0  0  0  0  0  0
    1.9430    5.2880   -2.8950 C   0  0  0  0  0  0  0  0  0  0  0  0
    2.7417    7.3955   -2.7160 C   0  0  0  0  0  0  0  0  0  0  0  0
    1.6381    6.7170   -3.0272 C   0  0  0  0  0  0  0  0  0  0  0  0
    0.9951   -1.5680   -3.5957 C   0  0  0  0  0  0  0  0  0  0  0  0
    1.9536   -2.7482   -3.5625 C   0  0  0  0  0  0  0  0  0  0  0  0
    1.5874   -0.6595   -2.5666 C   0  0  0  0  0  0  0  0  0  0  0  0
    2.6565   -2.6068   -2.2362 C   0  0  0  0  0  0  0  0  0  0  0  0
    5.2448    4.6223   -0.6811 H   0  0  0  0  0  0  0  0  0  0  0  0
    4.0531    3.8473    1.2544 H   0  0  0  0  0  0  0  0  0  0  0  0
    2.9189    4.7222    0.2441 H   0  0  0  0  0  0  0  0  0  0  0  0
    6.1148    2.4387   -1.5322 H   0  0  0  0  0  0  0  0  0  0  0  0
    5.9546    2.5219    0.2159 H   0  0  0  0  0  0  0  0  0  0  0  0
    3.8053    1.0994    1.3065 H   0  0  0  0  0  0  0  0  0  0  0  0
    1.9462    2.6358    1.1668 H   0  0  0  0  0  0  0  0  0  0  0  0
    1.9428    2.6273   -0.5820 H   0  0  0  0  0  0  0  0  0  0  0  0
    5.1678    0.3765   -0.5457 H   0  0  0  0  0  0  0  0  0  0  0  0
    4.1127    1.1059   -1.7372 H   0  0  0  0  0  0  0  0  0  0  0  0
    4.7234    3.9117   -2.9967 H   0  0  0  0  0  0  0  0  0  0  0  0
    3.2462    3.1082   -2.4698 H   0  0  0  0  0  0  0  0  0  0  0  0
    2.9006    8.4590   -2.7144 H   0  0  0  0  0  0  0  0  0  0  0  0
    0.6812    7.0929   -3.3442 H   0  0  0  0  0  0  0  0  0  0  0  0
   -0.0167   -1.8533   -3.2909 H   0  0  0  0  0  0  0  0  0  0  0  0
    0.9684   -1.0884   -4.5779 H   0  0  0  0  0  0  0  0  0  0  0  0
    1.4426   -3.7082   -3.6509 H   0  0  0  0  0  0  0  0  0  0  0  0
    2.7010   -2.6491   -4.3587 H   0  0  0  0  0  0  0  0  0  0  0  0
  1  8  1  0  0  0  0
  1 16  1  0  0  0  0
  2 16  2  0  0  0  0
  3 17  2  0  0  0  0
  4 18  2  0  0  0  0
  5 23  2  0  0  0  0
  6 24  2  0  0  0  0
  7 15  1  0  0  0  0
  7 17  1  0  0  0  0
  7 18  1  0  0  0  0
  8 23  1  0  0  0  0
  8 24  1  0  0  0  0
  9 10  1  0  0  0  0
  9 11  1  0  0  0  0
  9 15  1  0  0  0  0
  9 25  1  0  0  0  0
 10 13  1  0  0  0  0
 10 26  1  0  0  0  0
 10 27  1  0  0  0  0
 11 14  1  0  0  0  0
 11 28  1  0  0  0  0
 11 29  1  0  0  0  0
 12 13  1  0  0  0  0
 12 14  1  0  0  0  0
 12 16  1  0  0  0  0
 12 30  1  0  0  0  0
 13 31  1  0  0  0  0
 13 32  1  0  0  0  0
 14 33  1  0  0  0  0
 14 34  1  0  0  0  0
 15 35  1  0  0  0  0
 15 36  1  0  0  0  0
 17 19  1  0  0  0  0
 18 20  1  0  0  0  0
 19 20  2  0  0  0  0
 19 37  1  0  0  0  0
 20 38  1  0  0  0  0
 21 22  1  0  0  0  0
 21 23  1  0  0  0  0
 21 39  1  0  0  0  0
 21 40  1  0  0  0  0
 22 24  1  0  0  0  0
 22 41  1  0  0  0  0
 22 42  1  0  0  0  0
M  END
>  <Mol_ID>
5988

>  <Formula>
C16H18N2O6

>  <MolWeight>
334.32392

>  <Cat>
S0572

>  <Name>
SMCC

>  <Synonyms>
Succinimidyl-4-(N-maleimidomethyl cyclohexane)-1-carboxylate

>  <Target>
ADC Linker,Others

>  <Form>
Free Base

>  <CAS>
64987-85-5

>  <URL>
http://www.selleckchem.com/products/smcc.html

$$$$
