SN-6
 OpenBabel08302521243D

 50 52  0  0  0  0  0  0  0  0999 V2000
    0.8126    0.0598    0.5222 S   0  0  0  0  0  0  0  0  0  0  0  0
   -3.0784    0.2206   -0.8816 O   0  0  0  0  0  0  0  0  0  0  0  0
   -3.4577    2.0711    0.4145 O   0  0  0  0  0  0  0  0  0  0  0  0
   -3.4905   -6.6095   -1.4319 O   0  0  0  0  0  0  0  0  0  0  0  0
   -7.7012  -11.5620   -3.9409 O   0  5  0  0  0  0  0  0  0  0  0  0
   -8.2000  -12.2231   -1.9094 O   0  0  0  0  0  0  0  0  0  0  0  0
   -1.5242   -0.9664    1.0312 N   0  0  0  0  0  0  0  0  0  0  0  0
   -7.6070  -11.4827   -2.7079 N   0  3  0  0  0  0  0  0  0  0  0  0
   -0.4062   -1.2154    0.1117 C   0  0  3  0  0  0  0  0  0  0  0  0
   -1.7478    0.5063    1.1131 C   0  0  3  0  0  0  0  0  0  0  0  0
   -0.4688    1.2965    0.8294 C   0  0  0  0  0  0  0  0  0  0  0  0
    0.2097   -2.6223    0.2558 C   0  0  0  0  0  0  0  0  0  0  0  0
   -0.7472   -3.7180   -0.1609 C   0  0  0  0  0  0  0  0  0  0  0  0
   -2.8683    1.0141    0.2019 C   0  0  0  0  0  0  0  0  0  0  0  0
   -0.8160   -4.1463   -1.4914 C   0  0  0  0  0  0  0  0  0  0  0  0
   -1.6204   -4.2827    0.7759 C   0  0  0  0  0  0  0  0  0  0  0  0
   -1.7487   -5.1161   -1.8726 C   0  0  0  0  0  0  0  0  0  0  0  0
   -2.5547   -5.2476    0.3913 C   0  0  0  0  0  0  0  0  0  0  0  0
   -2.6210   -5.6737   -0.9353 C   0  0  0  0  0  0  0  0  0  0  0  0
   -4.0832    0.6611   -1.8063 C   0  0  0  0  0  0  0  0  0  0  0  0
   -4.2528   -7.3316   -0.4638 C   0  0  0  0  0  0  0  0  0  0  0  0
   -5.0946   -8.4259   -1.0930 C   0  0  0  0  0  0  0  0  0  0  0  0
   -5.4540    0.1734   -1.3758 C   0  0  0  0  0  0  0  0  0  0  0  0
   -5.2437   -8.5626   -2.4801 C   0  0  0  0  0  0  0  0  0  0  0  0
   -5.7781   -9.3144   -0.2442 C   0  0  0  0  0  0  0  0  0  0  0  0
   -6.0577   -9.5674   -3.0147 C   0  0  0  0  0  0  0  0  0  0  0  0
   -6.5950  -10.3201   -0.7670 C   0  0  0  0  0  0  0  0  0  0  0  0
   -6.7347  -10.4399   -2.1538 C   0  0  0  0  0  0  0  0  0  0  0  0
   -1.2231   -1.2833    1.9514 H   0  0  0  0  0  0  0  0  0  0  0  0
   -0.7263   -1.0618   -0.9250 H   0  0  0  0  0  0  0  0  0  0  0  0
   -2.0948    0.7095    2.1348 H   0  0  0  0  0  0  0  0  0  0  0  0
   -0.5512    1.9348   -0.0560 H   0  0  0  0  0  0  0  0  0  0  0  0
   -0.1810    1.9145    1.6845 H   0  0  0  0  0  0  0  0  0  0  0  0
    1.1172   -2.7036   -0.3584 H   0  0  0  0  0  0  0  0  0  0  0  0
    0.5354   -2.8068    1.2892 H   0  0  0  0  0  0  0  0  0  0  0  0
   -0.1515   -3.7261   -2.2430 H   0  0  0  0  0  0  0  0  0  0  0  0
   -1.5947   -3.9586    1.8138 H   0  0  0  0  0  0  0  0  0  0  0  0
   -1.7954   -5.4369   -2.9103 H   0  0  0  0  0  0  0  0  0  0  0  0
   -3.2220   -5.6303    1.1554 H   0  0  0  0  0  0  0  0  0  0  0  0
   -4.0656    1.7506   -1.9249 H   0  0  0  0  0  0  0  0  0  0  0  0
   -3.8298    0.2294   -2.7799 H   0  0  0  0  0  0  0  0  0  0  0  0
   -3.5718   -7.8065    0.2534 H   0  0  0  0  0  0  0  0  0  0  0  0
   -4.9377   -6.6460    0.0503 H   0  0  0  0  0  0  0  0  0  0  0  0
   -5.7493    0.6219   -0.4220 H   0  0  0  0  0  0  0  0  0  0  0  0
   -6.2079    0.4276   -2.1267 H   0  0  0  0  0  0  0  0  0  0  0  0
   -5.4505   -0.9119   -1.2317 H   0  0  0  0  0  0  0  0  0  0  0  0
   -4.7291   -7.8849   -3.1599 H   0  0  0  0  0  0  0  0  0  0  0  0
   -5.6799   -9.2236    0.8364 H   0  0  0  0  0  0  0  0  0  0  0  0
   -6.1545   -9.6496   -4.0954 H   0  0  0  0  0  0  0  0  0  0  0  0
   -7.1125  -10.9909   -0.0843 H   0  0  0  0  0  0  0  0  0  0  0  0
  1  9  1  0  0  0  0
  1 11  1  0  0  0  0
  2 14  1  0  0  0  0
  2 20  1  0  0  0  0
  3 14  2  0  0  0  0
  4 19  1  0  0  0  0
  4 21  1  0  0  0  0
  5  8  1  0  0  0  0
  6  8  2  0  0  0  0
  7  9  1  0  0  0  0
  7 10  1  0  0  0  0
  7 29  1  0  0  0  0
  8 28  1  0  0  0  0
  9 12  1  0  0  0  0
  9 30  1  0  0  0  0
 10 11  1  0  0  0  0
 10 14  1  0  0  0  0
 10 31  1  0  0  0  0
 11 32  1  0  0  0  0
 11 33  1  0  0  0  0
 12 13  1  0  0  0  0
 12 34  1  0  0  0  0
 12 35  1  0  0  0  0
 13 15  2  0  0  0  0
 13 16  1  0  0  0  0
 15 17  1  0  0  0  0
 15 36  1  0  0  0  0
 16 18  2  0  0  0  0
 16 37  1  0  0  0  0
 17 19  2  0  0  0  0
 17 38  1  0  0  0  0
 18 19  1  0  0  0  0
 18 39  1  0  0  0  0
 20 23  1  0  0  0  0
 20 40  1  0  0  0  0
 20 41  1  0  0  0  0
 21 22  1  0  0  0  0
 21 42  1  0  0  0  0
 21 43  1  0  0  0  0
 22 24  2  0  0  0  0
 22 25  1  0  0  0  0
 23 44  1  0  0  0  0
 23 45  1  0  0  0  0
 23 46  1  0  0  0  0
 24 26  1  0  0  0  0
 24 47  1  0  0  0  0
 25 27  2  0  0  0  0
 25 48  1  0  0  0  0
 26 28  2  0  0  0  0
 26 49  1  0  0  0  0
 27 28  1  0  0  0  0
 27 50  1  0  0  0  0
M  CHG  2   5  -1   8   1
M  END
>  <Mol_ID>
5027

>  <Formula>
C20H22N2O5S

>  <MolWeight>
402.46408

>  <Cat>
S0016

>  <Name>
SN-6

>  <Synonyms>
N/A

>  <Target>
AChR,Calcium Channel,NCX,Sodium Channel

>  <Form>
free base

>  <CAS>
415697-08-4

>  <URL>
http://www.selleckchem.com/products/sn-6.html

$$$$
