Sodium ascorbate.cdx
 OpenBabel08302521363D

 22 22  0  0  0  0  0  0  0  0999 V2000
   -0.6847   -1.0547   -0.1315 C   0  0  2  0  0  0  0  0  0  0  0  0
    0.7983   -0.9756    0.2302 C   0  0  3  0  0  0  0  0  0  0  0  0
    1.1269    0.5026    0.1140 C   0  0  3  0  0  0  0  0  0  0  0  0
   -0.2298    1.1639    0.1542 C   0  0  0  0  0  0  0  0  0  0  0  0
   -1.2302    0.2627    0.0259 O   0  0  0  0  0  0  0  0  0  0  0  0
   -0.3993    2.3689    0.3158 O   0  0  0  0  0  0  0  0  0  0  0  0
    1.9879    0.9030    1.1773 O   0  0  0  0  0  0  0  0  0  0  0  0
    1.0972   -1.4412    1.5460 O   0  0  0  0  0  0  0  0  0  0  0  0
   -1.5417   -2.0691    0.6438 C   0  0  2  0  0  0  0  0  0  0  0  0
   -1.7142   -1.7626    2.1486 C   0  0  0  0  0  0  0  0  0  0  0  0
   -2.6376   -2.6764    2.7488 O   0  0  0  0  0  0  0  0  0  0  0  0
   -1.0160   -3.3856    0.4315 O   0  0  0  0  0  0  0  0  0  0  0  0
   -0.7589   -1.2885   -1.2018 H   0  0  0  0  0  0  0  0  0  0  0  0
    1.3996   -1.5782   -0.4574 H   0  0  0  0  0  0  0  0  0  0  0  0
    1.5963    0.7327   -0.8517 H   0  0  0  0  0  0  0  0  0  0  0  0
    1.6852    1.7913    1.4586 H   0  0  0  0  0  0  0  0  0  0  0  0
    1.8481   -0.8901    1.8574 H   0  0  0  0  0  0  0  0  0  0  0  0
   -2.5456   -2.0723    0.2042 H   0  0  0  0  0  0  0  0  0  0  0  0
   -0.7894   -1.8951    2.7089 H   0  0  0  0  0  0  0  0  0  0  0  0
   -2.0834   -0.7466    2.3176 H   0  0  0  0  0  0  0  0  0  0  0  0
   -3.5256   -2.4501    2.4215 H   0  0  0  0  0  0  0  0  0  0  0  0
   -0.4760   -3.6051    1.2146 H   0  0  0  0  0  0  0  0  0  0  0  0
  1  2  1  0  0  0  0
  1  5  1  0  0  0  0
  1 13  1  6  0  0  0
  1  9  1  0  0  0  0
  2  3  1  0  0  0  0
  2  8  1  0  0  0  0
  2 14  1  0  0  0  0
  3  4  1  0  0  0  0
  3  7  1  0  0  0  0
  3 15  1  0  0  0  0
  4  5  1  0  0  0  0
  4  6  2  0  0  0  0
  7 16  1  0  0  0  0
  8 17  1  0  0  0  0
  9 18  1  6  0  0  0
  9 12  1  0  0  0  0
  9 10  1  0  0  0  0
 10 11  1  0  0  0  0
 10 19  1  0  0  0  0
 10 20  1  0  0  0  0
 11 21  1  0  0  0  0
 12 22  1  0  0  0  0
M  END
>  <Mol_ID>
7109

>  <Formula>
C6H10NaO6

>  <MolWeight>
201.12977

>  <Cat>
S4245

>  <Name>
Sodium ascorbate

>  <Synonyms>
Sodium Vitamin C

>  <Target>
Vitamin

>  <Form>
Sodium Salt

>  <CAS>
134-03-2

>  <URL>
http://selleckchem.com/products/sodium-ascorbate.html

$$$$
