Sodium Dehydrocholate
 OpenBabel08302520343D

 62 65  0  0  0  0  0  0  0  0999 V2000
   -0.5912   -0.8718   -0.3202 C   0  0  1  0  0  0  0  0  0  0  0  0
   -1.8869   -0.6784    0.4995 C   0  0  1  0  0  0  0  0  0  0  0  0
    0.2861    0.4198   -0.2157 C   0  0  1  0  0  0  0  0  0  0  0  0
    0.2744   -2.0584    0.0636 C   0  0  0  0  0  0  0  0  0  0  0  0
   -2.7470    0.4505   -0.1408 C   0  0  1  0  0  0  0  0  0  0  0  0
   -2.8746   -1.8332    0.6293 C   0  0  0  0  0  0  0  0  0  0  0  0
    1.6026    0.3263   -1.0811 C   0  0  2  0  0  0  0  0  0  0  0  0
   -0.5161    1.7159   -0.4781 C   0  0  0  0  0  0  0  0  0  0  0  0
    1.5149   -2.2370   -0.7969 C   0  0  0  0  0  0  0  0  0  0  0  0
    0.0111   -2.8368    0.9712 O   0  0  0  0  0  0  0  0  0  0  0  0
   -4.0720    0.3582    0.6644 C   0  0  2  0  0  0  0  0  0  0  0  0
   -1.8951    1.6889    0.1544 C   0  0  0  0  0  0  0  0  0  0  0  0
   -2.9566    0.2131   -1.6611 C   0  0  0  0  0  0  0  0  0  0  0  0
   -4.2391   -1.1665    0.8918 C   0  0  0  0  0  0  0  0  0  0  0  0
    2.3926   -0.9797   -0.7146 C   0  0  2  0  0  0  0  0  0  0  0  0
    2.5436    1.5477   -0.8572 C   0  0  0  0  0  0  0  0  0  0  0  0
    1.2713    0.3175   -2.5978 C   0  0  0  0  0  0  0  0  0  0  0  0
   -5.3354    1.0435    0.0323 C   0  0  1  0  0  0  0  0  0  0  0  0
   -2.2381    2.5966    0.9094 O   0  0  0  0  0  0  0  0  0  0  0  0
    3.0563   -0.9199    0.6749 C   0  0  0  0  0  0  0  0  0  0  0  0
    3.1279    1.6369    0.5435 C   0  0  0  0  0  0  0  0  0  0  0  0
   -6.5753    0.9521    0.9573 C   0  0  0  0  0  0  0  0  0  0  0  0
   -5.0560    2.5058   -0.3512 C   0  0  0  0  0  0  0  0  0  0  0  0
    3.8441    0.3523    0.8685 C   0  0  0  0  0  0  0  0  0  0  0  0
   -7.8982    1.4560    0.3634 C   0  0  0  0  0  0  0  0  0  0  0  0
    4.9676    0.3466    1.3668 O   0  0  0  0  0  0  0  0  0  0  0  0
   -8.5053    0.7714   -0.8630 C   0  0  0  0  0  0  0  0  0  0  0  0
   -9.5869    1.3005   -1.2766 O   0  0  0  0  0  0  0  0  0  0  0  0
   -7.8906   -0.2260   -1.3239 O   0  5  0  0  0  0  0  0  0  0  0  0
   -0.8557   -1.0658   -1.3631 H   0  0  0  0  0  0  0  0  0  0  0  0
   -1.6021   -0.3983    1.5275 H   0  0  0  0  0  0  0  0  0  0  0  0
    0.5919    0.4758    0.8392 H   0  0  0  0  0  0  0  0  0  0  0  0
   -2.9154   -2.4375   -0.2831 H   0  0  0  0  0  0  0  0  0  0  0  0
   -2.6058   -2.5060    1.4509 H   0  0  0  0  0  0  0  0  0  0  0  0
    0.0223    2.5705   -0.0514 H   0  0  0  0  0  0  0  0  0  0  0  0
   -0.6461    1.9296   -1.5400 H   0  0  0  0  0  0  0  0  0  0  0  0
    1.1945   -2.4331   -1.8259 H   0  0  0  0  0  0  0  0  0  0  0  0
    2.0676   -3.1227   -0.4633 H   0  0  0  0  0  0  0  0  0  0  0  0
   -3.9158    0.8167    1.6521 H   0  0  0  0  0  0  0  0  0  0  0  0
   -2.9866   -0.8534   -1.9080 H   0  0  0  0  0  0  0  0  0  0  0  0
   -3.8865    0.6281   -2.0487 H   0  0  0  0  0  0  0  0  0  0  0  0
   -2.1709    0.6614   -2.2733 H   0  0  0  0  0  0  0  0  0  0  0  0
   -4.9930   -1.6013    0.2265 H   0  0  0  0  0  0  0  0  0  0  0  0
   -4.5650   -1.3577    1.9211 H   0  0  0  0  0  0  0  0  0  0  0  0
    3.2058   -1.0941   -1.4463 H   0  0  0  0  0  0  0  0  0  0  0  0
    2.0306    2.4871   -1.0954 H   0  0  0  0  0  0  0  0  0  0  0  0
    3.3802    1.4804   -1.5679 H   0  0  0  0  0  0  0  0  0  0  0  0
    0.5697   -0.4713   -2.8776 H   0  0  0  0  0  0  0  0  0  0  0  0
    0.8411    1.2703   -2.9236 H   0  0  0  0  0  0  0  0  0  0  0  0
    2.1788    0.1689   -3.1948 H   0  0  0  0  0  0  0  0  0  0  0  0
   -5.5849    0.5015   -0.8841 H   0  0  0  0  0  0  0  0  0  0  0  0
    3.7409   -1.7691    0.7876 H   0  0  0  0  0  0  0  0  0  0  0  0
    2.3236   -0.9796    1.4866 H   0  0  0  0  0  0  0  0  0  0  0  0
    2.3596    1.8171    1.3008 H   0  0  0  0  0  0  0  0  0  0  0  0
    3.8446    2.4625    0.5906 H   0  0  0  0  0  0  0  0  0  0  0  0
   -6.7221   -0.0867    1.2731 H   0  0  0  0  0  0  0  0  0  0  0  0
   -6.3765    1.5312    1.8683 H   0  0  0  0  0  0  0  0  0  0  0  0
   -4.3020    2.5811   -1.1401 H   0  0  0  0  0  0  0  0  0  0  0  0
   -5.9436    3.0064   -0.7447 H   0  0  0  0  0  0  0  0  0  0  0  0
   -4.7036    3.0805    0.5099 H   0  0  0  0  0  0  0  0  0  0  0  0
   -8.6607    1.3704    1.1488 H   0  0  0  0  0  0  0  0  0  0  0  0
   -7.8296    2.5271    0.1401 H   0  0  0  0  0  0  0  0  0  0  0  0
  1  2  1  0  0  0  0
  1  3  1  0  0  0  0
  1  4  1  0  0  0  0
  1 30  1  6  0  0  0
  2  5  1  0  0  0  0
  2  6  1  0  0  0  0
  2 31  1  1  0  0  0
  3  7  1  0  0  0  0
  3  8  1  0  0  0  0
  3 32  1  1  0  0  0
  4  9  1  0  0  0  0
  4 10  2  0  0  0  0
  5 11  1  0  0  0  0
  5 12  1  0  0  0  0
  5 13  1  6  0  0  0
  6 14  1  0  0  0  0
  6 33  1  0  0  0  0
  6 34  1  0  0  0  0
  7 15  1  0  0  0  0
  7 16  1  0  0  0  0
  7 17  1  6  0  0  0
  8 12  1  0  0  0  0
  8 35  1  0  0  0  0
  8 36  1  0  0  0  0
  9 37  1  0  0  0  0
  9 38  1  0  0  0  0
 11 14  1  0  0  0  0
 11 39  1  1  0  0  0
 11 18  1  0  0  0  0
 12 19  2  0  0  0  0
 13 40  1  0  0  0  0
 13 41  1  0  0  0  0
 13 42  1  0  0  0  0
 14 43  1  0  0  0  0
 14 44  1  0  0  0  0
 15  9  1  0  0  0  0
 15 20  1  0  0  0  0
 15 45  1  6  0  0  0
 16 21  1  0  0  0  0
 16 46  1  0  0  0  0
 16 47  1  0  0  0  0
 17 48  1  0  0  0  0
 17 49  1  0  0  0  0
 17 50  1  0  0  0  0
 18 22  1  0  0  0  0
 18 23  1  0  0  0  0
 18 51  1  6  0  0  0
 20 24  1  0  0  0  0
 20 52  1  0  0  0  0
 20 53  1  0  0  0  0
 21 24  1  0  0  0  0
 21 54  1  0  0  0  0
 21 55  1  0  0  0  0
 22 25  1  0  0  0  0
 22 56  1  0  0  0  0
 22 57  1  0  0  0  0
 23 58  1  0  0  0  0
 23 59  1  0  0  0  0
 23 60  1  0  0  0  0
 24 26  2  0  0  0  0
 25 27  1  0  0  0  0
 25 61  1  0  0  0  0
 25 62  1  0  0  0  0
 27 28  2  0  0  0  0
 27 29  1  0  0  0  0
M  CHG  1  29  -1
M  END
>  <Mol_ID>
3406

>  <Formula>
C24H33NaO5

>  <MolWeight>
424.50559

>  <Cat>
S5765

>  <Name>
Sodium Dehydrocholate

>  <Synonyms>
N/A

>  <Target>
Others

>  <Form>
Free Base

>  <CAS>
145-41-5

>  <URL>
http://www.selleckchem.com/products/sodium-dehydrocholate.html

$$$$
