SodiuM new houttuyfonate
 OpenBabel08302521533D

 42 41  0  0  0  0  0  0  0  0999 V2000
   -1.0777    0.5827    0.4081 C   0  0  0  0  0  0  0  0  0  0  0  0
   -2.0277    1.6289   -0.1297 C   0  0  0  0  0  0  0  0  0  0  0  0
    0.3726    0.9690    0.6035 C   0  0  0  0  0  0  0  0  0  0  0  0
   -1.4964   -0.5277    0.7334 O   0  0  0  0  0  0  0  0  0  0  0  0
   -1.7361    2.1148   -1.5417 C   0  0  3  0  0  0  0  0  0  0  0  0
    0.7697    0.9031    2.0786 C   0  0  0  0  0  0  0  0  0  0  0  0
   -1.7258    0.7406   -2.7561 S   0  0  0  0  0  0  0  0  0  0  0  0
   -2.7038    3.1541   -1.8301 O   0  0  0  0  0  0  0  0  0  0  0  0
    2.2393    1.2676    2.3176 C   0  0  0  0  0  0  0  0  0  0  0  0
   -0.6790   -0.2010   -2.4504 O   0  0  0  0  0  0  0  0  0  0  0  0
   -3.0888    0.3453   -3.0310 O   0  0  0  0  0  0  0  0  0  0  0  0
   -1.1936    1.5570   -4.0450 O   0  0  0  0  0  0  0  0  0  0  0  0
    2.5781    2.6955    1.8813 C   0  0  0  0  0  0  0  0  0  0  0  0
    4.0455    3.0391    2.1345 C   0  0  0  0  0  0  0  0  0  0  0  0
    4.3622    4.4630    1.6669 C   0  0  0  0  0  0  0  0  0  0  0  0
    5.8312    4.8144    1.9043 C   0  0  0  0  0  0  0  0  0  0  0  0
    6.1548    6.2350    1.4398 C   0  0  0  0  0  0  0  0  0  0  0  0
    7.6166    6.5775    1.6838 C   0  0  0  0  0  0  0  0  0  0  0  0
   -3.0483    1.2293   -0.0716 H   0  0  0  0  0  0  0  0  0  0  0  0
   -2.0069    2.4786    0.5667 H   0  0  0  0  0  0  0  0  0  0  0  0
    0.9902    0.2983   -0.0025 H   0  0  0  0  0  0  0  0  0  0  0  0
    0.5105    1.9820    0.2193 H   0  0  0  0  0  0  0  0  0  0  0  0
   -0.7430    2.5714   -1.6000 H   0  0  0  0  0  0  0  0  0  0  0  0
    0.1248    1.5648    2.6663 H   0  0  0  0  0  0  0  0  0  0  0  0
    0.5962   -0.1119    2.4595 H   0  0  0  0  0  0  0  0  0  0  0  0
   -3.5202    2.6908   -2.1110 H   0  0  0  0  0  0  0  0  0  0  0  0
    2.4558    1.1554    3.3874 H   0  0  0  0  0  0  0  0  0  0  0  0
    2.8828    0.5536    1.7893 H   0  0  0  0  0  0  0  0  0  0  0  0
   -0.5454    0.9888   -4.5168 H   0  0  0  0  0  0  0  0  0  0  0  0
    2.3800    2.8184    0.8118 H   0  0  0  0  0  0  0  0  0  0  0  0
    1.9324    3.4028    2.4158 H   0  0  0  0  0  0  0  0  0  0  0  0
    4.2706    2.9389    3.2026 H   0  0  0  0  0  0  0  0  0  0  0  0
    4.6843    2.3268    1.5981 H   0  0  0  0  0  0  0  0  0  0  0  0
    4.1311    4.5589    0.5985 H   0  0  0  0  0  0  0  0  0  0  0  0
    3.7210    5.1751    2.2005 H   0  0  0  0  0  0  0  0  0  0  0  0
    6.0628    4.7157    2.9715 H   0  0  0  0  0  0  0  0  0  0  0  0
    6.4684    4.1013    1.3672 H   0  0  0  0  0  0  0  0  0  0  0  0
    5.9359    6.3371    0.3704 H   0  0  0  0  0  0  0  0  0  0  0  0
    5.5225    6.9564    1.9705 H   0  0  0  0  0  0  0  0  0  0  0  0
    8.2758    5.8847    1.1510 H   0  0  0  0  0  0  0  0  0  0  0  0
    7.8342    7.5909    1.3323 H   0  0  0  0  0  0  0  0  0  0  0  0
    7.8579    6.5292    2.7506 H   0  0  0  0  0  0  0  0  0  0  0  0
  1  2  1  0  0  0  0
  1  3  1  0  0  0  0
  1  4  2  0  0  0  0
  2  5  1  0  0  0  0
  2 19  1  0  0  0  0
  2 20  1  0  0  0  0
  3  6  1  0  0  0  0
  3 21  1  0  0  0  0
  3 22  1  0  0  0  0
  5  7  1  0  0  0  0
  5  8  1  0  0  0  0
  5 23  1  0  0  0  0
  6  9  1  0  0  0  0
  6 24  1  0  0  0  0
  6 25  1  0  0  0  0
  7 10  2  0  0  0  0
  7 11  2  0  0  0  0
  7 12  1  0  0  0  0
  8 26  1  0  0  0  0
  9 13  1  0  0  0  0
  9 27  1  0  0  0  0
  9 28  1  0  0  0  0
 12 29  1  0  0  0  0
 13 14  1  0  0  0  0
 13 30  1  0  0  0  0
 13 31  1  0  0  0  0
 14 15  1  0  0  0  0
 14 32  1  0  0  0  0
 14 33  1  0  0  0  0
 15 16  1  0  0  0  0
 15 34  1  0  0  0  0
 15 35  1  0  0  0  0
 16 17  1  0  0  0  0
 16 36  1  0  0  0  0
 16 37  1  0  0  0  0
 17 18  1  0  0  0  0
 17 38  1  0  0  0  0
 17 39  1  0  0  0  0
 18 40  1  0  0  0  0
 18 41  1  0  0  0  0
 18 42  1  0  0  0  0
M  END
>  <Mol_ID>
9960

>  <Formula>
C12H24NaO5S

>  <MolWeight>
303.37073

>  <Cat>
E5216

>  <Name>
SodiuM new houttuyfonate

>  <Synonyms>
Sodium houttuyfonate

>  <Target>
Immunology & Inflammation related, Bacterial, Fungal

>  <Form>
Sodium

>  <CAS>
83766-73-8

>  <URL>
https://www.selleckchem.com/products/sodium-new-houttuyfonate.html

$$$$
