Sodium citrate
 OpenBabel08302521453D

 18 17  0  0  0  0  0  0  0  0999 V2000
    1.1005    0.1459    0.0864 O   0  0  0  0  0  0  0  0  0  0  0  0
   -1.6043    0.1848   -0.3782 O   0  5  0  0  0  0  0  0  0  0  0  0
   -1.5425   -1.5835   -1.8022 O   0  0  0  0  0  0  0  0  0  0  0  0
    3.3321   -0.0204   -1.4869 O   0  5  0  0  0  0  0  0  0  0  0  0
   -0.4327   -3.4863    1.1547 O   0  5  0  0  0  0  0  0  0  0  0  0
    3.0606   -0.8663   -3.5825 O   0  0  0  0  0  0  0  0  0  0  0  0
    1.4836   -2.6391    2.0210 O   0  0  0  0  0  0  0  0  0  0  0  0
    0.5762   -0.8902   -0.7892 C   0  0  0  0  0  0  0  0  0  0  0  0
    1.1329   -0.5965   -2.2143 C   0  0  0  0  0  0  0  0  0  0  0  0
    1.0378   -2.2722   -0.2967 C   0  0  0  0  0  0  0  0  0  0  0  0
   -1.0094   -0.7748   -0.9702 C   0  0  0  0  0  0  0  0  0  0  0  0
    2.6462   -0.5112   -2.4343 C   0  0  0  0  0  0  0  0  0  0  0  0
    0.6240   -2.7854    1.0928 C   0  0  0  0  0  0  0  0  0  0  0  0
    2.0633    0.1557   -0.1159 H   0  0  0  0  0  0  0  0  0  0  0  0
    0.7386   -1.3343   -2.9260 H   0  0  0  0  0  0  0  0  0  0  0  0
    0.7538    0.3832   -2.5405 H   0  0  0  0  0  0  0  0  0  0  0  0
    0.7157   -3.0344   -1.0194 H   0  0  0  0  0  0  0  0  0  0  0  0
    2.1361   -2.3006   -0.3069 H   0  0  0  0  0  0  0  0  0  0  0  0
  1  8  1  0  0  0  0
  1 14  1  0  0  0  0
  2 11  1  0  0  0  0
  3 11  2  0  0  0  0
  4 12  1  0  0  0  0
  5 13  1  0  0  0  0
  6 12  2  0  0  0  0
  7 13  2  0  0  0  0
  8  9  1  0  0  0  0
  8 10  1  0  0  0  0
  8 11  1  0  0  0  0
  9 12  1  0  0  0  0
  9 15  1  0  0  0  0
  9 16  1  0  0  0  0
 10 13  1  0  0  0  0
 10 17  1  0  0  0  0
 10 18  1  0  0  0  0
M  CHG  3   2  -1   4  -1   5  -1
M  END
>  <Mol_ID>
9387

>  <Formula>
C6H5Na3O7

>  <MolWeight>
258.06901

>  <Cat>
S9489

>  <Name>
Sodium citrate

>  <Synonyms>
N/A

>  <Target>
Others

>  <Form>
Free Base

>  <CAS>
68-04-2

>  <URL>
N/A

$$$$
