Sodium Fluorophosphate.cdx
 OpenBabel08302521383D

  5  4  0  0  0  0  0  0  0  0999 V2000
    1.0175   -0.1450    0.1904 P   0  0  0  0  0  0  0  0  0  0  0  0
    1.0175   -1.4045    1.0446 O   0  0  0  0  0  0  0  0  0  0  0  0
    1.0175    1.0039    1.2954 F   0  0  0  0  0  0  0  0  0  0  0  0
   -0.2718    0.1437   -0.5648 O   0  5  0  0  0  0  0  0  0  0  0  0
    2.3068    0.1437   -0.5648 O   0  5  0  0  0  0  0  0  0  0  0  0
  1  2  2  0  0  0  0
  1  3  1  0  0  0  0
  1  4  1  0  0  0  0
  1  5  1  0  0  0  0
M  CHG  2   4  -1   5  -1
M  END
>  <Mol_ID>
7739

>  <Formula>
FNa2O3P

>  <MolWeight>
143.9499042

>  <Cat>
S4013

>  <Name>
Sodium Monofluorophosphate

>  <Synonyms>
NSC248

>  <Target>
phosphatase

>  <Form>
Disodium salt

>  <CAS>
10163-15-2

>  <URL>
http://selleckchem.com/products/sodium-monofluorophosphate.html

$$$$
