Sodium butyrate.cdx
 OpenBabel08302521383D

 13 12  0  0  0  0  0  0  0  0999 V2000
    1.0166   -0.1008    0.0447 C   0  0  0  0  0  0  0  0  0  0  0  0
    0.4811    1.3180   -0.0839 C   0  0  0  0  0  0  0  0  0  0  0  0
    1.0371    2.0494   -1.3017 C   0  0  0  0  0  0  0  0  0  0  0  0
    0.6541    1.3870   -2.6263 C   0  0  0  0  0  0  0  0  0  0  0  0
   -0.5851    1.2391   -2.8215 O   0  5  0  0  0  0  0  0  0  0  0  0
    1.6301    1.0806   -3.3685 O   0  0  0  0  0  0  0  0  0  0  0  0
    0.6483   -0.7382   -0.7653 H   0  0  0  0  0  0  0  0  0  0  0  0
    0.6896   -0.5423    0.9913 H   0  0  0  0  0  0  0  0  0  0  0  0
    2.1109   -0.1143    0.0234 H   0  0  0  0  0  0  0  0  0  0  0  0
   -0.6130    1.2895   -0.1187 H   0  0  0  0  0  0  0  0  0  0  0  0
    0.7561    1.8815    0.8161 H   0  0  0  0  0  0  0  0  0  0  0  0
    0.6438    3.0718   -1.3193 H   0  0  0  0  0  0  0  0  0  0  0  0
    2.1271    2.1298   -1.2233 H   0  0  0  0  0  0  0  0  0  0  0  0
  1  2  1  0  0  0  0
  1  7  1  0  0  0  0
  1  8  1  0  0  0  0
  1  9  1  0  0  0  0
  2  3  1  0  0  0  0
  2 10  1  0  0  0  0
  2 11  1  0  0  0  0
  3  4  1  0  0  0  0
  3 12  1  0  0  0  0
  3 13  1  0  0  0  0
  4  5  1  0  0  0  0
  4  6  2  0  0  0  0
M  CHG  1   5  -1
M  END
>  <Mol_ID>
7752

>  <Formula>
C4H7NaO2

>  <MolWeight>
110.08695

>  <Cat>
S1999

>  <Name>
Sodium butyrate

>  <Synonyms>
NaB, Butanoic acid sodium salt

>  <Target>
Apoptosis related,Autophagy,HDAC

>  <Form>
Sodium Salt

>  <CAS>
156-54-7

>  <URL>
http://selleckchem.com/products/Sodium-butyrate.html

$$$$
