Sodium gluconate.cdx
 OpenBabel08302521383D

 24 23  0  0  0  0  0  0  0  0999 V2000
    0.9096    0.0373   -0.1144 C   0  0  1  0  0  0  0  0  0  0  0  0
    0.8050   -0.6490   -1.4959 C   0  0  1  0  0  0  0  0  0  0  0  0
   -0.1005   -0.4242    0.9409 C   0  0  2  0  0  0  0  0  0  0  0  0
    2.2153   -0.2033    0.4584 O   0  0  0  0  0  0  0  0  0  0  0  0
    1.7811   -0.0987   -2.5564 C   0  0  1  0  0  0  0  0  0  0  0  0
    1.0166   -2.0714   -1.4120 O   0  0  0  0  0  0  0  0  0  0  0  0
   -1.5657   -0.1241    0.5341 C   0  0  0  0  0  0  0  0  0  0  0  0
    0.2110    0.2986    2.1747 O   0  0  0  0  0  0  0  0  0  0  0  0
    3.2750   -0.2446   -2.2444 C   0  0  0  0  0  0  0  0  0  0  0  0
    1.5609   -0.8304   -3.7938 O   0  0  0  0  0  0  0  0  0  0  0  0
   -2.0306   -0.8445   -0.3878 O   0  0  0  0  0  0  0  0  0  0  0  0
    4.0315    0.1495   -3.4026 O   0  0  0  0  0  0  0  0  0  0  0  0
   -2.0999    0.7947    1.2221 O   0  5  0  0  0  0  0  0  0  0  0  0
    0.8313    1.1237   -0.2462 H   0  0  0  0  0  0  0  0  0  0  0  0
   -0.1981   -0.5178   -1.9106 H   0  0  0  0  0  0  0  0  0  0  0  0
    0.0118   -1.4851    1.1792 H   0  0  0  0  0  0  0  0  0  0  0  0
    2.0781   -0.0540    1.4208 H   0  0  0  0  0  0  0  0  0  0  0  0
    1.5547    0.9500   -2.7783 H   0  0  0  0  0  0  0  0  0  0  0  0
    0.3382   -2.4027   -0.7951 H   0  0  0  0  0  0  0  0  0  0  0  0
   -0.6276    0.8060    2.3251 H   0  0  0  0  0  0  0  0  0  0  0  0
    3.5935    0.3943   -1.4189 H   0  0  0  0  0  0  0  0  0  0  0  0
    3.5400   -1.2836   -2.0305 H   0  0  0  0  0  0  0  0  0  0  0  0
    1.3479   -1.7379   -3.4864 H   0  0  0  0  0  0  0  0  0  0  0  0
    3.4954   -0.1793   -4.1533 H   0  0  0  0  0  0  0  0  0  0  0  0
  1  4  1  0  0  0  0
  1 14  1  6  0  0  0
  1  3  1  0  0  0  0
  1  2  1  0  0  0  0
  2  5  1  0  0  0  0
  2  6  1  0  0  0  0
  2 15  1  6  0  0  0
  3 16  1  1  0  0  0
  3  8  1  0  0  0  0
  3  7  1  0  0  0  0
  4 17  1  0  0  0  0
  5  9  1  0  0  0  0
  5 10  1  0  0  0  0
  5 18  1  6  0  0  0
  6 19  1  0  0  0  0
  7 11  2  0  0  0  0
  7 13  1  0  0  0  0
  8 20  1  0  0  0  0
  9 12  1  0  0  0  0
  9 21  1  0  0  0  0
  9 22  1  0  0  0  0
 10 23  1  0  0  0  0
 12 24  1  0  0  0  0
M  CHG  1  13  -1
M  END
>  <Mol_ID>
7726

>  <Formula>
C6H11NaO7

>  <MolWeight>
218.13711

>  <Cat>
S4174

>  <Name>
Sodium Gluconate

>  <Synonyms>
527-07-1

>  <Target>
Others

>  <Form>
Sodium salt

>  <CAS>
527-07-1

>  <URL>
http://selleckchem.com/products/sodium-gluconate.html

$$$$
