SodiuM 4-aMinohippurate hydrate.cdx
 OpenBabel08302519583D

 23 23  0  0  0  0  0  0  0  0999 V2000
    0.9280   -0.0080   -0.0254 C   0  0  0  0  0  0  0  0  0  0  0  0
    0.2097    1.1884    0.0091 C   0  0  0  0  0  0  0  0  0  0  0  0
   -1.1892    1.1823   -0.0037 C   0  0  0  0  0  0  0  0  0  0  0  0
   -1.8950   -0.0254   -0.0207 C   0  0  0  0  0  0  0  0  0  0  0  0
   -1.1835   -1.2312   -0.0174 C   0  0  0  0  0  0  0  0  0  0  0  0
    0.2194   -1.2149    0.0038 C   0  0  0  0  0  0  0  0  0  0  0  0
    2.3184    0.0035    0.1597 N   0  0  0  0  0  0  0  0  0  0  0  0
   -3.3750    0.0202    0.1056 C   0  0  0  0  0  0  0  0  0  0  0  0
   -4.0858   -0.9787   -0.5079 N   0  0  0  0  0  0  0  0  0  0  0  0
   -3.8859    0.9345    0.7482 O   0  0  0  0  0  0  0  0  0  0  0  0
   -5.5544   -1.0577   -0.4740 C   0  0  0  0  0  0  0  0  0  0  0  0
   -6.1777   -1.7781   -1.6962 C   0  0  0  0  0  0  0  0  0  0  0  0
   -7.4384   -1.8417   -1.7104 O   0  5  0  0  0  0  0  0  0  0  0  0
   -5.3317   -2.2303   -2.5291 O   0  0  0  0  0  0  0  0  0  0  0  0
    0.7279    2.1411    0.0671 H   0  0  0  0  0  0  0  0  0  0  0  0
   -1.7346    2.1233    0.0303 H   0  0  0  0  0  0  0  0  0  0  0  0
   -1.7092   -2.1812    0.0281 H   0  0  0  0  0  0  0  0  0  0  0  0
    0.7539   -2.1594    0.0651 H   0  0  0  0  0  0  0  0  0  0  0  0
    2.7809   -0.8342   -0.1758 H   0  0  0  0  0  0  0  0  0  0  0  0
    2.7622    0.8538   -0.1739 H   0  0  0  0  0  0  0  0  0  0  0  0
   -3.6853   -1.5372   -1.2584 H   0  0  0  0  0  0  0  0  0  0  0  0
   -5.8157   -1.6220    0.4293 H   0  0  0  0  0  0  0  0  0  0  0  0
   -5.9728   -0.0497   -0.3842 H   0  0  0  0  0  0  0  0  0  0  0  0
  1  2  2  0  0  0  0
  1  7  1  0  0  0  0
  2  3  1  0  0  0  0
  2 15  1  0  0  0  0
  3  4  2  0  0  0  0
  3 16  1  0  0  0  0
  4  5  1  0  0  0  0
  4  8  1  0  0  0  0
  5  6  2  0  0  0  0
  5 17  1  0  0  0  0
  6  1  1  0  0  0  0
  6 18  1  0  0  0  0
  7 19  1  0  0  0  0
  7 20  1  0  0  0  0
  8  9  1  0  0  0  0
  8 10  2  0  0  0  0
  9 11  1  0  0  0  0
  9 21  1  0  0  0  0
 11 12  1  0  0  0  0
 11 22  1  0  0  0  0
 11 23  1  0  0  0  0
 12 13  1  0  0  0  0
 12 14  2  0  0  0  0
M  CHG  1  13  -1
M  END
>  <Mol_ID>
2312

>  <Formula>
C9H9N2NaO3

>  <MolWeight>
216.16913

>  <Cat>
S4414

>  <Name>
Sodium 4-aminohippurate

>  <Synonyms>
Aminohippurate sodium

>  <Target>
Others

>  <Form>
Sodium

>  <CAS>
94-16-6

>  <URL>
https://www.selleckchem.com/products/sodium-4-aminohippurate.html

$$$$
