Sodium propionate
 OpenBabel08302521383D

 11 10  0  0  0  0  0  0  0  0999 V2000
    1.1069   -0.0884   -0.0757 C   0  0  0  0  0  0  0  0  0  0  0  0
    0.2925    0.9452    0.6654 C   0  0  0  0  0  0  0  0  0  0  0  0
    1.8741   -0.8312    0.7573 O   0  0  0  0  0  0  0  0  0  0  0  0
    1.1030   -0.2606   -1.2832 O   0  0  0  0  0  0  0  0  0  0  0  0
   -0.5791    1.7610   -0.2737 C   0  0  0  0  0  0  0  0  0  0  0  0
   -0.3424    0.4330    1.3958 H   0  0  0  0  0  0  0  0  0  0  0  0
    0.9808    1.6139    1.1932 H   0  0  0  0  0  0  0  0  0  0  0  0
    1.7821   -0.5879    1.6979 H   0  0  0  0  0  0  0  0  0  0  0  0
   -1.3176    1.1248   -0.7728 H   0  0  0  0  0  0  0  0  0  0  0  0
   -1.1154    2.5378    0.2800 H   0  0  0  0  0  0  0  0  0  0  0  0
    0.0224    2.2466   -1.0495 H   0  0  0  0  0  0  0  0  0  0  0  0
  1  2  1  0  0  0  0
  1  3  1  0  0  0  0
  1  4  2  0  0  0  0
  2  5  1  0  0  0  0
  2  6  1  0  0  0  0
  2  7  1  0  0  0  0
  3  8  1  0  0  0  0
  5  9  1  0  0  0  0
  5 10  1  0  0  0  0
  5 11  1  0  0  0  0
M  END
>  <Mol_ID>
7653

>  <Formula>
C3H6NaO2

>  <MolWeight>
97.06831

>  <Cat>
E4022

>  <Name>
Sodium propionate

>  <Synonyms>
Sodium propanoate

>  <Target>
Apoptosis related

>  <Form>
Sodium

>  <CAS>
137-40-6

>  <URL>
https://www.selleckchem.com/products/sodium-propionate.html

$$$$
