Sodium Thiocyanate
 OpenBabel08302520393D

  4  3  0  0  0  0  0  0  0  0999 V2000
    0.9967   -0.0441   -0.0627 C   0  0  0  0  0  0  0  0  0  0  0  0
   -0.6869   -0.1179   -0.1469 S   0  0  0  0  0  0  0  0  0  0  0  0
    2.1521    0.0176    0.0079 N   0  0  0  0  0  0  0  0  0  0  0  0
   -0.9307    0.7492    0.8436 H   0  0  0  0  0  0  0  0  0  0  0  0
  1  2  1  0  0  0  0
  1  3  3  0  0  0  0
  2  4  1  0  0  0  0
M  END
>  <Mol_ID>
3632

>  <Formula>
CNNaS

>  <MolWeight>
81.07217

>  <Cat>
S6281

>  <Name>
Sodium Thiocyanate

>  <Synonyms>
Sodium rhodanide, Sodium sulfocyanate, Sodium rhodanate

>  <Target>
Interleukins,ROS

>  <Form>
free base

>  <CAS>
540-72-7

>  <URL>
http://www.selleck.cn/products/sodium-thiocyanate.html

$$$$
