Sofpironium bromide
 OpenBabel08302521373D

 61 62  0  0  0  0  0  0  0  0999 V2000
    1.9944    0.3832    3.0499 Br  0  5  0  0  0  0  0  0  0  0  0  0
   -1.0917   -0.4303   -1.3020 C   0  0  0  0  0  0  0  0  0  0  0  0
    0.3029   -0.7726   -1.9183 C   0  0  1  0  0  0  0  0  0  0  0  0
   -2.1775   -0.4353   -1.8681 O   0  0  0  0  0  0  0  0  0  0  0  0
   -1.0174   -0.0365    0.0091 O   0  0  0  0  0  0  0  0  0  0  0  0
    0.7023    0.1885   -3.0598 C   0  0  0  0  0  0  0  0  0  0  0  0
    2.0666    0.4182   -3.3290 C   0  0  0  0  0  0  0  0  0  0  0  0
    2.4786    1.2299   -4.3902 C   0  0  0  0  0  0  0  0  0  0  0  0
    1.5335    1.8297   -5.2117 C   0  0  0  0  0  0  0  0  0  0  0  0
    0.1764    1.6173   -4.9772 C   0  0  0  0  0  0  0  0  0  0  0  0
   -0.2327    0.7967   -3.9148 C   0  0  0  0  0  0  0  0  0  0  0  0
    1.3329   -0.6881   -0.9241 O   0  0  0  0  0  0  0  0  0  0  0  0
    0.3737   -2.2385   -2.4325 C   0  0  0  0  0  0  0  0  0  0  0  0
   -0.6696   -2.6728   -3.4637 C   0  0  0  0  0  0  0  0  0  0  0  0
   -0.6769   -4.2001   -3.4142 C   0  0  0  0  0  0  0  0  0  0  0  0
    0.0305   -4.5996   -2.1223 C   0  0  0  0  0  0  0  0  0  0  0  0
    0.2422   -3.3074   -1.3422 C   0  0  0  0  0  0  0  0  0  0  0  0
   -3.4943    1.7608    1.1426 N   0  3  3  0  0  0  0  0  0  0  0  0
   -2.6463    1.8764   -0.1291 C   0  0  0  0  0  0  0  0  0  0  0  0
   -1.2529    1.3645    0.2458 C   0  0  1  0  0  0  0  0  0  0  0  0
   -1.1506    1.6140    1.7452 C   0  0  0  0  0  0  0  0  0  0  0  0
   -2.4948    2.0887    2.2491 C   0  0  0  0  0  0  0  0  0  0  0  0
   -4.6194    2.7719    1.1172 C   0  0  0  0  0  0  0  0  0  0  0  0
   -4.0371    0.2956    1.3589 C   0  0  0  0  0  0  0  0  0  0  0  0
   -5.0050   -0.2783    0.3175 C   0  0  0  0  0  0  0  0  0  0  0  0
   -5.6225    0.3761   -0.5089 O   0  0  0  0  0  0  0  0  0  0  0  0
   -5.1035   -1.6269    0.4994 O   0  0  0  0  0  0  0  0  0  0  0  0
   -5.8668   -2.3793   -0.4616 C   0  0  0  0  0  0  0  0  0  0  0  0
   -7.3066   -2.5381   -0.0093 C   0  0  0  0  0  0  0  0  0  0  0  0
    2.8336   -0.0569   -2.7139 H   0  0  0  0  0  0  0  0  0  0  0  0
    3.5390    1.3780   -4.5742 H   0  0  0  0  0  0  0  0  0  0  0  0
    1.8525    2.4499   -6.0435 H   0  0  0  0  0  0  0  0  0  0  0  0
   -0.5604    2.0676   -5.6309 H   0  0  0  0  0  0  0  0  0  0  0  0
   -1.3019    0.6290   -3.8045 H   0  0  0  0  0  0  0  0  0  0  0  0
    1.2004    0.0939   -0.3577 H   0  0  0  0  0  0  0  0  0  0  0  0
    1.3673   -2.3915   -2.8847 H   0  0  0  0  0  0  0  0  0  0  0  0
   -1.6718   -2.3195   -3.2117 H   0  0  0  0  0  0  0  0  0  0  0  0
   -0.4339   -2.3067   -4.4678 H   0  0  0  0  0  0  0  0  0  0  0  0
   -1.7050   -4.5782   -3.4345 H   0  0  0  0  0  0  0  0  0  0  0  0
   -0.1577   -4.6237   -4.2810 H   0  0  0  0  0  0  0  0  0  0  0  0
   -0.5468   -5.3298   -1.5465 H   0  0  0  0  0  0  0  0  0  0  0  0
    0.9964   -5.0612   -2.3613 H   0  0  0  0  0  0  0  0  0  0  0  0
    1.1354   -3.3711   -0.7115 H   0  0  0  0  0  0  0  0  0  0  0  0
   -0.6196   -3.1144   -0.6945 H   0  0  0  0  0  0  0  0  0  0  0  0
   -2.5753    2.9472   -0.3567 H   0  0  0  0  0  0  0  0  0  0  0  0
   -3.1713    1.3792   -0.9406 H   0  0  0  0  0  0  0  0  0  0  0  0
   -0.4749    1.9194   -0.2907 H   0  0  0  0  0  0  0  0  0  0  0  0
   -0.8824    0.7017    2.2841 H   0  0  0  0  0  0  0  0  0  0  0  0
   -0.4006    2.3828    1.9611 H   0  0  0  0  0  0  0  0  0  0  0  0
   -2.8101    1.6040    3.1796 H   0  0  0  0  0  0  0  0  0  0  0  0
   -2.4904    3.1745    2.3976 H   0  0  0  0  0  0  0  0  0  0  0  0
   -5.2437    2.5997    0.2400 H   0  0  0  0  0  0  0  0  0  0  0  0
   -5.1920    2.6802    2.0432 H   0  0  0  0  0  0  0  0  0  0  0  0
   -4.1821    3.7742    1.0463 H   0  0  0  0  0  0  0  0  0  0  0  0
   -3.1613   -0.3553    1.4245 H   0  0  0  0  0  0  0  0  0  0  0  0
   -4.5548    0.3112    2.3247 H   0  0  0  0  0  0  0  0  0  0  0  0
   -5.8075   -1.9322   -1.4597 H   0  0  0  0  0  0  0  0  0  0  0  0
   -5.3994   -3.3681   -0.5212 H   0  0  0  0  0  0  0  0  0  0  0  0
   -7.8315   -1.5784   -0.0319 H   0  0  0  0  0  0  0  0  0  0  0  0
   -7.8396   -3.2387   -0.6603 H   0  0  0  0  0  0  0  0  0  0  0  0
   -7.3560   -2.9101    1.0193 H   0  0  0  0  0  0  0  0  0  0  0  0
  2  4  2  0  0  0  0
  2  5  1  0  0  0  0
  3  2  1  1  0  0  0
  3  6  1  0  0  0  0
  3 12  1  0  0  0  0
  3 13  1  0  0  0  0
  6  7  2  0  0  0  0
  6 11  1  0  0  0  0
  7  8  1  0  0  0  0
  7 30  1  0  0  0  0
  8  9  2  0  0  0  0
  8 31  1  0  0  0  0
  9 10  1  0  0  0  0
  9 32  1  0  0  0  0
 10 11  2  0  0  0  0
 10 33  1  0  0  0  0
 11 34  1  0  0  0  0
 12 35  1  0  0  0  0
 13 14  1  0  0  0  0
 13 17  1  0  0  0  0
 13 36  1  0  0  0  0
 14 15  1  0  0  0  0
 14 37  1  0  0  0  0
 14 38  1  0  0  0  0
 15 16  1  0  0  0  0
 15 39  1  0  0  0  0
 15 40  1  0  0  0  0
 16 17  1  0  0  0  0
 16 41  1  0  0  0  0
 16 42  1  0  0  0  0
 17 43  1  0  0  0  0
 17 44  1  0  0  0  0
 18 19  1  0  0  0  0
 18 22  1  0  0  0  0
 18 23  1  0  0  0  0
 18 24  1  0  0  0  0
 19 20  1  0  0  0  0
 19 45  1  0  0  0  0
 19 46  1  0  0  0  0
 20 21  1  0  0  0  0
 20 47  1  6  0  0  0
 20  5  1  0  0  0  0
 21 22  1  0  0  0  0
 21 48  1  0  0  0  0
 21 49  1  0  0  0  0
 22 50  1  0  0  0  0
 22 51  1  0  0  0  0
 23 52  1  0  0  0  0
 23 53  1  0  0  0  0
 23 54  1  0  0  0  0
 24 25  1  0  0  0  0
 24 55  1  0  0  0  0
 24 56  1  0  0  0  0
 25 26  2  0  0  0  0
 25 27  1  0  0  0  0
 27 28  1  0  0  0  0
 28 29  1  0  0  0  0
 28 57  1  0  0  0  0
 28 58  1  0  0  0  0
 29 59  1  0  0  0  0
 29 60  1  0  0  0  0
 29 61  1  0  0  0  0
M  CHG  2   1  -1  18   1
M  END
>  <Mol_ID>
7575

>  <Formula>
C22H32BrNO5

>  <MolWeight>
470.39718

>  <Cat>
E2874

>  <Name>
Sofpironium bromide

>  <Synonyms>
BBI 4000

>  <Target>
AChR

>  <Form>
bromide

>  <CAS>
1628106-94-4

>  <URL>
https://www.selleckchem.com/products/sofpironium-bromide.html

$$$$
