SP 600125, negative control
 OpenBabel08302521373D

 28 31  0  0  0  0  0  0  0  0999 V2000
    0.9802    0.0505   -0.0682 O   0  0  0  0  0  0  0  0  0  0  0  0
    7.7027   -2.2772   -0.0574 C   0  0  0  0  0  0  0  0  0  0  0  0
    4.3267   -1.1002   -0.0644 C   0  0  0  0  0  0  0  0  0  0  0  0
    5.1033    0.0605   -0.0628 C   0  0  0  0  0  0  0  0  0  0  0  0
    2.9463   -1.2328   -0.0668 C   0  0  0  0  0  0  0  0  0  0  0  0
    5.1809   -2.1796   -0.0638 C   0  0  0  0  0  0  0  0  0  0  0  0
    4.4275    1.3477   -0.0642 C   0  0  0  0  0  0  0  0  0  0  0  0
    6.4083   -0.2321   -0.0604 N   0  0  0  0  0  0  0  0  0  0  0  0
    2.2044    0.0514   -0.0673 C   0  0  0  0  0  0  0  0  0  0  0  0
    2.4061   -2.5149   -0.0690 C   0  0  0  0  0  0  0  0  0  0  0  0
    6.4283   -1.5996   -0.0607 N   0  0  0  0  0  0  0  0  0  0  0  0
    4.6746   -3.4852   -0.0662 C   0  0  0  0  0  0  0  0  0  0  0  0
    3.0030    1.3439   -0.0662 C   0  0  0  0  0  0  0  0  0  0  0  0
    5.1217    2.5582   -0.0645 C   0  0  0  0  0  0  0  0  0  0  0  0
    3.2682   -3.6240   -0.0688 C   0  0  0  0  0  0  0  0  0  0  0  0
    2.3066    2.5566   -0.0680 C   0  0  0  0  0  0  0  0  0  0  0  0
    4.4106    3.7626   -0.0669 C   0  0  0  0  0  0  0  0  0  0  0  0
    3.0120    3.7617   -0.0685 C   0  0  0  0  0  0  0  0  0  0  0  0
    8.2522   -1.9808   -0.9543 H   0  0  0  0  0  0  0  0  0  0  0  0
    8.2470   -1.9819    0.8430 H   0  0  0  0  0  0  0  0  0  0  0  0
    7.5499   -3.3585   -0.0585 H   0  0  0  0  0  0  0  0  0  0  0  0
    1.3276   -2.6507   -0.0710 H   0  0  0  0  0  0  0  0  0  0  0  0
    5.3198   -4.3574   -0.0662 H   0  0  0  0  0  0  0  0  0  0  0  0
    6.2092    2.5704   -0.0636 H   0  0  0  0  0  0  0  0  0  0  0  0
    2.8373   -4.6246   -0.0709 H   0  0  0  0  0  0  0  0  0  0  0  0
    1.2187    2.5655   -0.0694 H   0  0  0  0  0  0  0  0  0  0  0  0
    4.9488    4.7079   -0.0679 H   0  0  0  0  0  0  0  0  0  0  0  0
    2.4685    4.7039   -0.0705 H   0  0  0  0  0  0  0  0  0  0  0  0
  1  9  2  0  0  0  0
  2 11  1  0  0  0  0
  2 19  1  0  0  0  0
  2 20  1  0  0  0  0
  2 21  1  0  0  0  0
  3  4  1  0  0  0  0
  3  5  1  0  0  0  0
  3  6  2  0  0  0  0
  4  7  1  0  0  0  0
  4  8  2  0  0  0  0
  5  9  1  0  0  0  0
  5 10  2  0  0  0  0
  6 11  1  0  0  0  0
  6 12  1  0  0  0  0
  7 13  2  0  0  0  0
  7 14  1  0  0  0  0
  8 11  1  0  0  0  0
  9 13  1  0  0  0  0
 10 15  1  0  0  0  0
 10 22  1  0  0  0  0
 12 15  2  0  0  0  0
 12 23  1  0  0  0  0
 13 16  1  0  0  0  0
 14 17  2  0  0  0  0
 14 24  1  0  0  0  0
 15 25  1  0  0  0  0
 16 18  2  0  0  0  0
 16 26  1  0  0  0  0
 17 18  1  0  0  0  0
 17 27  1  0  0  0  0
 18 28  1  0  0  0  0
M  END
>  <Mol_ID>
7534

>  <Formula>
C15H10N2O

>  <MolWeight>
234.2527

>  <Cat>
E1391

>  <Name>
SP 600125, negative control

>  <Synonyms>
JNK inhibitor II, negative control

>  <Target>
JNK

>  <Form>
free base

>  <CAS>
54642-23-8

>  <URL>
https://www.selleckchem.com/products/sp-600125.html

$$$$
