Sphingosine
 OpenBabel08302521233D

 58 57  0  0  0  0  0  0  0  0999 V2000
   -4.8812   -3.5175    5.3095 C   0  0  0  0  0  0  0  0  0  0  0  0
   -3.3666   -3.4263    5.5799 C   0  0  1  0  0  0  0  0  0  0  0  0
   -2.5421   -3.0287    4.3064 C   0  0  1  0  0  0  0  0  0  0  0  0
   -2.9179   -1.6617    3.7831 C   0  0  0  0  0  0  0  0  0  0  0  0
   -2.1169   -0.5969    3.6222 C   0  0  0  0  0  0  0  0  0  0  0  0
   -2.6452    0.7798    3.3348 C   0  0  0  0  0  0  0  0  0  0  0  0
   -2.2074    1.7088    4.4702 C   0  0  0  0  0  0  0  0  0  0  0  0
   -2.7529    3.1245    4.3065 C   0  0  0  0  0  0  0  0  0  0  0  0
   -2.2849    4.0198    5.4567 C   0  0  0  0  0  0  0  0  0  0  0  0
   -2.8167    5.4452    5.3078 C   0  0  0  0  0  0  0  0  0  0  0  0
   -2.3431    6.3404    6.4545 C   0  0  0  0  0  0  0  0  0  0  0  0
   -2.8759    7.7669    6.3032 C   0  0  0  0  0  0  0  0  0  0  0  0
   -2.4036    8.6666    7.4479 C   0  0  0  0  0  0  0  0  0  0  0  0
   -2.9420   10.0910    7.2956 C   0  0  0  0  0  0  0  0  0  0  0  0
   -2.4716   10.9959    8.4382 C   0  0  0  0  0  0  0  0  0  0  0  0
   -3.0131   12.4185    8.2783 C   0  0  0  0  0  0  0  0  0  0  0  0
   -2.5570   13.3290    9.4189 C   0  0  0  0  0  0  0  0  0  0  0  0
   -3.0992   14.7406    9.2529 C   0  0  0  0  0  0  0  0  0  0  0  0
   -5.1679   -4.4802    4.3030 O   0  0  0  0  0  0  0  0  0  0  0  0
   -1.1477   -3.0651    4.6395 O   0  0  0  0  0  0  0  0  0  0  0  0
   -3.1371   -2.5187    6.7314 N   0  0  0  0  0  0  0  0  0  0  0  0
   -5.2946   -2.5575    4.9843 H   0  0  0  0  0  0  0  0  0  0  0  0
   -5.4197   -3.7967    6.2229 H   0  0  0  0  0  0  0  0  0  0  0  0
   -3.0138   -4.4185    5.8893 H   0  0  0  0  0  0  0  0  0  0  0  0
   -2.6993   -3.7726    3.5186 H   0  0  0  0  0  0  0  0  0  0  0  0
   -3.9752   -1.5386    3.5571 H   0  0  0  0  0  0  0  0  0  0  0  0
   -1.0432   -0.6820    3.7746 H   0  0  0  0  0  0  0  0  0  0  0  0
   -2.2610    1.1327    2.3723 H   0  0  0  0  0  0  0  0  0  0  0  0
   -3.7406    0.7720    3.2688 H   0  0  0  0  0  0  0  0  0  0  0  0
   -2.5473    1.3001    5.4317 H   0  0  0  0  0  0  0  0  0  0  0  0
   -1.1109    1.7428    4.5116 H   0  0  0  0  0  0  0  0  0  0  0  0
   -2.4150    3.5412    3.3505 H   0  0  0  0  0  0  0  0  0  0  0  0
   -3.8488    3.0964    4.2820 H   0  0  0  0  0  0  0  0  0  0  0  0
   -2.6235    3.5985    6.4116 H   0  0  0  0  0  0  0  0  0  0  0  0
   -1.1883    4.0382    5.4840 H   0  0  0  0  0  0  0  0  0  0  0  0
   -2.4781    5.8631    4.3522 H   0  0  0  0  0  0  0  0  0  0  0  0
   -3.9129    5.4266    5.2831 H   0  0  0  0  0  0  0  0  0  0  0  0
   -2.6794    5.9217    7.4109 H   0  0  0  0  0  0  0  0  0  0  0  0
   -1.2466    6.3581    6.4768 H   0  0  0  0  0  0  0  0  0  0  0  0
   -2.5396    8.1837    5.3460 H   0  0  0  0  0  0  0  0  0  0  0  0
   -3.9723    7.7473    6.2799 H   0  0  0  0  0  0  0  0  0  0  0  0
   -2.7372    8.2479    8.4045 H   0  0  0  0  0  0  0  0  0  0  0  0
   -1.3070    8.6884    7.4694 H   0  0  0  0  0  0  0  0  0  0  0  0
   -2.6113   10.5076    6.3375 H   0  0  0  0  0  0  0  0  0  0  0  0
   -4.0389   10.0675    7.2727 H   0  0  0  0  0  0  0  0  0  0  0  0
   -2.8065   10.5811    9.3968 H   0  0  0  0  0  0  0  0  0  0  0  0
   -1.3752   11.0200    8.4601 H   0  0  0  0  0  0  0  0  0  0  0  0
   -2.6747   12.8337    7.3211 H   0  0  0  0  0  0  0  0  0  0  0  0
   -4.1093   12.3919    8.2491 H   0  0  0  0  0  0  0  0  0  0  0  0
   -2.8982   12.9241   10.3788 H   0  0  0  0  0  0  0  0  0  0  0  0
   -1.4619   13.3662    9.4530 H   0  0  0  0  0  0  0  0  0  0  0  0
   -4.1938   14.7410    9.2344 H   0  0  0  0  0  0  0  0  0  0  0  0
   -2.7739   15.3736   10.0845 H   0  0  0  0  0  0  0  0  0  0  0  0
   -2.7399   15.1918    8.3224 H   0  0  0  0  0  0  0  0  0  0  0  0
   -5.5990   -5.2329    4.7445 H   0  0  0  0  0  0  0  0  0  0  0  0
   -0.9909   -2.3336    5.2518 H   0  0  0  0  0  0  0  0  0  0  0  0
   -2.1447   -2.5079    6.9565 H   0  0  0  0  0  0  0  0  0  0  0  0
   -3.3838   -1.5649    6.4641 H   0  0  0  0  0  0  0  0  0  0  0  0
  1  2  1  0  0  0  0
  1 19  1  0  0  0  0
  1 22  1  0  0  0  0
  1 23  1  0  0  0  0
  2  3  1  0  0  0  0
  2 21  1  0  0  0  0
  2 24  1  1  0  0  0
  3  4  1  0  0  0  0
  3 20  1  0  0  0  0
  3 25  1  6  0  0  0
  4  5  2  0  0  0  0
  4 26  1  0  0  0  0
  5  6  1  0  0  0  0
  5 27  1  0  0  0  0
  6  7  1  0  0  0  0
  6 28  1  0  0  0  0
  6 29  1  0  0  0  0
  7  8  1  0  0  0  0
  7 30  1  0  0  0  0
  7 31  1  0  0  0  0
  8  9  1  0  0  0  0
  8 32  1  0  0  0  0
  8 33  1  0  0  0  0
  9 10  1  0  0  0  0
  9 34  1  0  0  0  0
  9 35  1  0  0  0  0
 10 11  1  0  0  0  0
 10 36  1  0  0  0  0
 10 37  1  0  0  0  0
 11 12  1  0  0  0  0
 11 38  1  0  0  0  0
 11 39  1  0  0  0  0
 12 13  1  0  0  0  0
 12 40  1  0  0  0  0
 12 41  1  0  0  0  0
 13 14  1  0  0  0  0
 13 42  1  0  0  0  0
 13 43  1  0  0  0  0
 14 15  1  0  0  0  0
 14 44  1  0  0  0  0
 14 45  1  0  0  0  0
 15 16  1  0  0  0  0
 15 46  1  0  0  0  0
 15 47  1  0  0  0  0
 16 17  1  0  0  0  0
 16 48  1  0  0  0  0
 16 49  1  0  0  0  0
 17 18  1  0  0  0  0
 17 50  1  0  0  0  0
 17 51  1  0  0  0  0
 18 52  1  0  0  0  0
 18 53  1  0  0  0  0
 18 54  1  0  0  0  0
 19 55  1  0  0  0  0
 20 56  1  0  0  0  0
 21 57  1  0  0  0  0
 21 58  1  0  0  0  0
M  END
>  <Mol_ID>
4821

>  <Formula>
C18H37NO2

>  <MolWeight>
299.49188

>  <Cat>
S2210

>  <Name>
Sphingosine

>  <Synonyms>
2-amino-4-trans-octadecene-1,3-diol,C18 Sphingosine

>  <Target>
Others

>  <Form>
Free Base

>  <CAS>
123-78-4

>  <URL>
http://www.selleck.cn/products/sphingosine.html

$$$$
