Sphondin
 OpenBabel08302521503D

 24 26  0  0  0  0  0  0  0  0999 V2000
    0.9704   -0.0311    0.0835 O   0  0  0  0  0  0  0  0  0  0  0  0
    0.2167    1.1739    0.0821 C   0  0  0  0  0  0  0  0  0  0  0  0
    8.5234    1.3846    0.0743 O   0  0  0  0  0  0  0  0  0  0  0  0
    4.4986   -1.1018    0.0802 C   0  0  0  0  0  0  0  0  0  0  0  0
    5.1760    0.1278    0.0783 C   0  0  0  0  0  0  0  0  0  0  0  0
    3.1075   -1.0800    0.0820 C   0  0  0  0  0  0  0  0  0  0  0  0
    4.8708   -2.4732    0.0805 C   0  0  0  0  0  0  0  0  0  0  0  0
    4.4489    1.3242    0.0788 C   0  0  0  0  0  0  0  0  0  0  0  0
    6.5907    0.1529    0.0767 O   0  0  0  0  0  0  0  0  0  0  0  0
    2.3317    0.0889    0.0821 C   0  0  0  0  0  0  0  0  0  0  0  0
    2.6269   -2.3593    0.0835 O   0  0  0  0  0  0  0  0  0  0  0  0
    3.6991   -3.1925    0.0825 C   0  0  0  0  0  0  0  0  0  0  0  0
    3.0479    1.2978    0.0803 C   0  0  0  0  0  0  0  0  0  0  0  0
    5.1721    2.5874    0.0765 C   0  0  0  0  0  0  0  0  0  0  0  0
    7.2982    1.3464    0.0755 C   0  0  0  0  0  0  0  0  0  0  0  0
    6.5075    2.5878    0.0752 C   0  0  0  0  0  0  0  0  0  0  0  0
    0.4128    1.7620    0.9851 H   0  0  0  0  0  0  0  0  0  0  0  0
    0.4140    1.7611   -0.8211 H   0  0  0  0  0  0  0  0  0  0  0  0
   -0.8447    0.9090    0.0814 H   0  0  0  0  0  0  0  0  0  0  0  0
    5.8719   -2.8810    0.0793 H   0  0  0  0  0  0  0  0  0  0  0  0
    3.4679   -4.2487    0.0835 H   0  0  0  0  0  0  0  0  0  0  0  0
    2.5182    2.2458    0.0804 H   0  0  0  0  0  0  0  0  0  0  0  0
    4.6140    3.5180    0.0763 H   0  0  0  0  0  0  0  0  0  0  0  0
    7.0770    3.5094    0.0738 H   0  0  0  0  0  0  0  0  0  0  0  0
  1  2  1  0  0  0  0
  1 10  1  0  0  0  0
  2 17  1  0  0  0  0
  2 18  1  0  0  0  0
  2 19  1  0  0  0  0
  3 15  2  0  0  0  0
  4  5  2  0  0  0  0
  4  6  1  0  0  0  0
  4  7  1  0  0  0  0
  5  8  1  0  0  0  0
  5  9  1  0  0  0  0
  6 10  2  0  0  0  0
  6 11  1  0  0  0  0
  7 12  2  0  0  0  0
  7 20  1  0  0  0  0
  8 13  2  0  0  0  0
  8 14  1  0  0  0  0
  9 15  1  0  0  0  0
 10 13  1  0  0  0  0
 11 12  1  0  0  0  0
 12 21  1  0  0  0  0
 13 22  1  0  0  0  0
 14 16  2  0  0  0  0
 14 23  1  0  0  0  0
 15 16  1  0  0  0  0
 16 24  1  0  0  0  0
M  END
>  <Mol_ID>
9917

>  <Formula>
C12H8O4

>  <MolWeight>
216.18952

>  <Cat>
E5096

>  <Name>
Sphondin

>  <Synonyms>
N/A

>  <Target>
Interleukins, COX, PGES

>  <Form>
free base

>  <CAS>
483-66-9

>  <URL>
https://www.selleckchem.com/products/sphondin.html

$$$$
