spironolactone.cdx
 OpenBabel08302522063D

 61 65  0  0  0  0  0  0  0  0999 V2000
   -1.0601   -3.8277    0.8966 C   0  0  0  0  0  0  0  0  0  0  0  0
   -2.3457   -3.3734    0.2417 C   0  0  0  0  0  0  0  0  0  0  0  0
   -2.4132   -2.0150   -0.3174 C   0  0  0  0  0  0  0  0  0  0  0  0
   -1.4500   -1.1641    0.0716 C   0  0  0  0  0  0  0  0  0  0  0  0
    0.0465   -1.5637    0.4019 C   0  0  2  0  0  0  0  0  0  0  0  0
   -0.2162   -2.6443    1.4962 C   0  0  0  0  0  0  0  0  0  0  0  0
   -2.0936    0.1518    0.5957 C   0  0  0  0  0  0  0  0  0  0  0  0
   -1.1674    1.3040    0.9974 C   0  0  2  0  0  0  0  0  0  0  0  0
    0.1006    1.0340    0.1967 C   0  0  3  0  0  0  0  0  0  0  0  0
    0.9163   -0.1940    0.7408 C   0  0  3  0  0  0  0  0  0  0  0  0
    0.6688    2.2552   -0.5707 C   0  0  3  0  0  0  0  0  0  0  0  0
    1.9636    1.8950   -1.3173 C   0  0  3  0  0  0  0  0  0  0  0  0
    2.8898    1.1938   -0.3101 C   0  0  0  0  0  0  0  0  0  0  0  0
    2.4015   -0.1376    0.2517 C   0  0  0  0  0  0  0  0  0  0  0  0
   -0.3037    2.6436   -1.7527 C   0  0  0  0  0  0  0  0  0  0  0  0
    0.3147    2.0993   -3.0689 C   0  0  0  0  0  0  0  0  0  0  0  0
    1.4103    1.1296   -2.5921 C   0  0  3  0  0  0  0  0  0  0  0  0
    0.6704   -0.0655   -2.3259 O   0  0  0  0  0  0  0  0  0  0  0  0
    0.5960   -0.8696   -3.4194 C   0  0  0  0  0  0  0  0  0  0  0  0
    1.7397   -0.5413   -4.3147 C   0  0  0  0  0  0  0  0  0  0  0  0
    2.4153    0.6325   -3.6115 C   0  0  0  0  0  0  0  0  0  0  0  0
    2.6870    3.2048   -1.7479 C   0  0  0  0  0  0  0  0  0  0  0  0
    0.9016   -2.4175   -0.6112 C   0  0  0  0  0  0  0  0  0  0  0  0
   -3.3627   -4.0640    0.2289 O   0  0  0  0  0  0  0  0  0  0  0  0
   -1.0265    1.4999    2.8230 S   0  0  0  0  0  0  0  0  0  0  0  0
   -2.6256    2.1942    3.1510 C   0  0  0  0  0  0  0  0  0  0  0  0
   -2.9430    2.4800    4.5919 C   0  0  0  0  0  0  0  0  0  0  0  0
   -3.4376    2.3906    2.2480 O   0  0  0  0  0  0  0  0  0  0  0  0
   -0.2211   -1.7529   -3.5872 O   0  0  0  0  0  0  0  0  0  0  0  0
   -0.5244   -4.3970    0.1264 H   0  0  0  0  0  0  0  0  0  0  0  0
   -1.3063   -4.5473    1.6779 H   0  0  0  0  0  0  0  0  0  0  0  0
   -3.4246   -1.6807   -0.5452 H   0  0  0  0  0  0  0  0  0  0  0  0
    0.7213   -3.0583    1.8871 H   0  0  0  0  0  0  0  0  0  0  0  0
   -0.7574   -2.2142    2.3465 H   0  0  0  0  0  0  0  0  0  0  0  0
   -2.7183    0.5487   -0.2196 H   0  0  0  0  0  0  0  0  0  0  0  0
   -2.7823   -0.1007    1.4120 H   0  0  0  0  0  0  0  0  0  0  0  0
   -1.5989    2.2514    0.6583 H   0  0  0  0  0  0  0  0  0  0  0  0
   -0.3306    0.5861   -0.6860 H   0  0  0  0  0  0  0  0  0  0  0  0
    0.9798   -0.1393    1.8342 H   0  0  0  0  0  0  0  0  0  0  0  0
    0.7948    3.1038    0.1128 H   0  0  0  0  0  0  0  0  0  0  0  0
    3.0587    1.8703    0.5423 H   0  0  0  0  0  0  0  0  0  0  0  0
    3.8798    1.0485   -0.7613 H   0  0  0  0  0  0  0  0  0  0  0  0
    2.6602   -0.8569   -0.5183 H   0  0  0  0  0  0  0  0  0  0  0  0
    3.0531   -0.4149    1.0917 H   0  0  0  0  0  0  0  0  0  0  0  0
   -0.4432    3.7267   -1.8184 H   0  0  0  0  0  0  0  0  0  0  0  0
   -1.3051    2.2122   -1.6216 H   0  0  0  0  0  0  0  0  0  0  0  0
    0.7195    2.9174   -3.6673 H   0  0  0  0  0  0  0  0  0  0  0  0
   -0.4653    1.6117   -3.6674 H   0  0  0  0  0  0  0  0  0  0  0  0
    2.3998   -1.4119   -4.3639 H   0  0  0  0  0  0  0  0  0  0  0  0
    1.3567   -0.2790   -5.3010 H   0  0  0  0  0  0  0  0  0  0  0  0
    2.7409    1.3930   -4.3203 H   0  0  0  0  0  0  0  0  0  0  0  0
    3.3051    0.2469   -3.0987 H   0  0  0  0  0  0  0  0  0  0  0  0
    3.5528    2.9849   -2.3785 H   0  0  0  0  0  0  0  0  0  0  0  0
    2.0421    3.8948   -2.3019 H   0  0  0  0  0  0  0  0  0  0  0  0
    3.0380    3.7660   -0.8744 H   0  0  0  0  0  0  0  0  0  0  0  0
    0.3703   -3.2143   -1.1281 H   0  0  0  0  0  0  0  0  0  0  0  0
    1.3753   -1.8748   -1.4130 H   0  0  0  0  0  0  0  0  0  0  0  0
    1.7517   -2.8744   -0.0755 H   0  0  0  0  0  0  0  0  0  0  0  0
   -3.7170    3.2292    4.6268 H   0  0  0  0  0  0  0  0  0  0  0  0
   -3.3064    1.5794    5.0829 H   0  0  0  0  0  0  0  0  0  0  0  0
   -2.0721    2.8886    5.1196 H   0  0  0  0  0  0  0  0  0  0  0  0
  1  2  1  0  0  0  0
  1 30  1  0  0  0  0
  1 31  1  0  0  0  0
  2  3  1  0  0  0  0
  2 24  2  0  0  0  0
  3  4  2  0  0  0  0
  3 32  1  0  0  0  0
  4  5  1  0  0  0  0
  4  7  1  0  0  0  0
  5  6  1  0  0  0  0
  5 23  1  6  0  0  0
  6  1  1  0  0  0  0
  6 33  1  0  0  0  0
  6 34  1  0  0  0  0
  7  8  1  0  0  0  0
  7 35  1  0  0  0  0
  7 36  1  0  0  0  0
  8 37  1  6  0  0  0
  8 25  1  0  0  0  0
  9  8  1  0  0  0  0
  9 10  1  0  0  0  0
  9 11  1  0  0  0  0
  9 38  1  0  0  0  0
 10  5  1  0  0  0  0
 10 14  1  0  0  0  0
 10 39  1  0  0  0  0
 11 12  1  0  0  0  0
 11 15  1  0  0  0  0
 11 40  1  0  0  0  0
 12 13  1  0  0  0  0
 12 22  1  0  0  0  0
 13 14  1  0  0  0  0
 13 41  1  0  0  0  0
 13 42  1  0  0  0  0
 14 43  1  0  0  0  0
 14 44  1  0  0  0  0
 15 16  1  0  0  0  0
 15 45  1  0  0  0  0
 15 46  1  0  0  0  0
 16 47  1  0  0  0  0
 16 48  1  0  0  0  0
 17 16  1  0  0  0  0
 17 12  1  0  0  0  0
 17 18  1  0  0  0  0
 17 21  1  0  0  0  0
 18 19  1  0  0  0  0
 19 20  1  0  0  0  0
 19 29  2  0  0  0  0
 20 21  1  0  0  0  0
 20 49  1  0  0  0  0
 20 50  1  0  0  0  0
 21 51  1  0  0  0  0
 21 52  1  0  0  0  0
 22 53  1  0  0  0  0
 22 54  1  0  0  0  0
 22 55  1  0  0  0  0
 23 56  1  0  0  0  0
 23 57  1  0  0  0  0
 23 58  1  0  0  0  0
 25 26  1  0  0  0  0
 26 27  1  0  0  0  0
 26 28  2  0  0  0  0
 27 59  1  0  0  0  0
 27 60  1  0  0  0  0
 27 61  1  0  0  0  0
M  END
>  <Mol_ID>
1392

>  <Formula>
C24H32O4S

>  <MolWeight>
416.57348

>  <Cat>
S4054

>  <Name>
Spironolactone

>  <Synonyms>
N/A

>  <Target>
Androgen Receptor

>  <Form>
free base

>  <CAS>
52-01-7

>  <URL>
http://selleckchem.com/products/spironolactone.html

$$$$
