SR3335
 OpenBabel08302521313D

 34 35  0  0  0  0  0  0  0  0999 V2000
    1.0535    0.5197    1.3290 S   0  0  0  0  0  0  0  0  0  0  0  0
   -0.9484    1.0902    3.4414 S   0  0  0  0  0  0  0  0  0  0  0  0
    3.8006    8.1753   -1.5194 F   0  0  0  0  0  0  0  0  0  0  0  0
    1.9315    7.4534   -0.7021 F   0  0  0  0  0  0  0  0  0  0  0  0
    3.3395    8.4666    0.5750 F   0  0  0  0  0  0  0  0  0  0  0  0
    6.0358    5.9040    0.9163 F   0  0  0  0  0  0  0  0  0  0  0  0
    4.7911    7.4367    1.8053 F   0  0  0  0  0  0  0  0  0  0  0  0
    4.3145    5.3479    2.0929 F   0  0  0  0  0  0  0  0  0  0  0  0
    4.8529    5.8828   -1.2559 O   0  0  0  0  0  0  0  0  0  0  0  0
    2.5000    0.5787    1.2105 O   0  0  0  0  0  0  0  0  0  0  0  0
    0.3469   -0.7199    1.0822 O   0  0  0  0  0  0  0  0  0  0  0  0
    0.3564    1.6789    0.2961 N   0  0  0  0  0  0  0  0  0  0  0  0
    3.9257    6.1970   -0.1510 C   0  0  0  0  0  0  0  0  0  0  0  0
    2.8932    5.0477   -0.1324 C   0  0  0  0  0  0  0  0  0  0  0  0
    3.2592    7.5724   -0.4293 C   0  0  0  0  0  0  0  0  0  0  0  0
    4.7402    6.2520    1.1748 C   0  0  0  0  0  0  0  0  0  0  0  0
    2.9497    3.9791   -1.0477 C   0  0  0  0  0  0  0  0  0  0  0  0
    1.8815    5.0179    0.8457 C   0  0  0  0  0  0  0  0  0  0  0  0
    1.1283    2.8550    0.0759 C   0  0  0  0  0  0  0  0  0  0  0  0
    2.0820    2.8885   -0.9395 C   0  0  0  0  0  0  0  0  0  0  0  0
    1.0186    3.9254    0.9572 C   0  0  0  0  0  0  0  0  0  0  0  0
    0.7053    0.9267    3.0240 C   0  0  0  0  0  0  0  0  0  0  0  0
    1.5218    1.0998    4.1273 C   0  0  0  0  0  0  0  0  0  0  0  0
    0.7807    1.2935    5.3296 C   0  0  0  0  0  0  0  0  0  0  0  0
   -0.5782    1.2950    5.0994 C   0  0  0  0  0  0  0  0  0  0  0  0
    5.5307    5.2766   -0.8954 H   0  0  0  0  0  0  0  0  0  0  0  0
    0.0858    1.1964   -0.5629 H   0  0  0  0  0  0  0  0  0  0  0  0
    3.6848    3.9567   -1.8518 H   0  0  0  0  0  0  0  0  0  0  0  0
    1.7683    5.8310    1.5641 H   0  0  0  0  0  0  0  0  0  0  0  0
    2.1875    2.0559   -1.6297 H   0  0  0  0  0  0  0  0  0  0  0  0
    0.2679    3.9133    1.7414 H   0  0  0  0  0  0  0  0  0  0  0  0
    2.6032    1.0429    4.0706 H   0  0  0  0  0  0  0  0  0  0  0  0
    1.2198    1.4054    6.3149 H   0  0  0  0  0  0  0  0  0  0  0  0
   -1.3719    1.4047    5.8273 H   0  0  0  0  0  0  0  0  0  0  0  0
  1 10  2  0  0  0  0
  1 11  2  0  0  0  0
  1 12  1  0  0  0  0
  1 22  1  0  0  0  0
  2 22  1  0  0  0  0
  2 25  1  0  0  0  0
  3 15  1  0  0  0  0
  4 15  1  0  0  0  0
  5 15  1  0  0  0  0
  6 16  1  0  0  0  0
  7 16  1  0  0  0  0
  8 16  1  0  0  0  0
  9 13  1  0  0  0  0
  9 26  1  0  0  0  0
 12 19  1  0  0  0  0
 12 27  1  0  0  0  0
 13 14  1  0  0  0  0
 13 15  1  0  0  0  0
 13 16  1  0  0  0  0
 14 17  2  0  0  0  0
 14 18  1  0  0  0  0
 17 20  1  0  0  0  0
 17 28  1  0  0  0  0
 18 21  2  0  0  0  0
 18 29  1  0  0  0  0
 19 20  2  0  0  0  0
 19 21  1  0  0  0  0
 20 30  1  0  0  0  0
 21 31  1  0  0  0  0
 22 23  2  0  0  0  0
 23 24  1  0  0  0  0
 23 32  1  0  0  0  0
 24 25  2  0  0  0  0
 24 33  1  0  0  0  0
 25 34  1  0  0  0  0
M  END
>  <Mol_ID>
5865

>  <Formula>
C13H9F6NO3S2

>  <MolWeight>
405.3358792

>  <Cat>
S2969

>  <Name>
SR3335

>  <Synonyms>
ML-176

>  <Target>
ROR

>  <Form>
Free Base

>  <CAS>
293753-05-6

>  <URL>
http://www.selleckchem.com/products/sr3335.html

$$$$
