SR8278
 OpenBabel08302521313D

 43 45  0  0  0  0  0  0  0  0999 V2000
   -2.5987    2.4843    1.0803 S   0  0  0  0  0  0  0  0  0  0  0  0
   -4.4501    2.5647    3.5218 S   0  0  0  0  0  0  0  0  0  0  0  0
    2.7852    1.4194   -0.6866 O   0  0  0  0  0  0  0  0  0  0  0  0
    3.1453    2.4218   -2.7211 O   0  0  0  0  0  0  0  0  0  0  0  0
   -0.2519    2.1030   -0.9721 O   0  0  0  0  0  0  0  0  0  0  0  0
    1.0916    3.5578    0.1912 N   0  0  0  0  0  0  0  0  0  0  0  0
    1.9854    3.6903   -0.9954 C   0  0  3  0  0  0  0  0  0  0  0  0
    3.1896    4.6116   -0.6789 C   0  0  0  0  0  0  0  0  0  0  0  0
    0.9944    4.7090    1.0979 C   0  0  0  0  0  0  0  0  0  0  0  0
    2.7050    5.9606   -0.2346 C   0  0  0  0  0  0  0  0  0  0  0  0
    1.5817    5.9961    0.5973 C   0  0  0  0  0  0  0  0  0  0  0  0
    2.6466    2.4281   -1.5930 C   0  0  0  0  0  0  0  0  0  0  0  0
   -0.0326    2.7092    0.0722 C   0  0  0  0  0  0  0  0  0  0  0  0
    3.3353    7.1507   -0.6007 C   0  0  0  0  0  0  0  0  0  0  0  0
    1.0684    7.2234    1.0298 C   0  0  0  0  0  0  0  0  0  0  0  0
    2.8186    8.3721   -0.1661 C   0  0  0  0  0  0  0  0  0  0  0  0
    1.6825    8.4097    0.6368 C   0  0  0  0  0  0  0  0  0  0  0  0
   -0.8955    2.5954    1.2600 C   0  0  0  0  0  0  0  0  0  0  0  0
   -0.5459    2.5961    2.6018 C   0  0  0  0  0  0  0  0  0  0  0  0
    3.5872    0.3049   -1.1406 C   0  0  0  0  0  0  0  0  0  0  0  0
   -1.6754    2.5926    3.4674 C   0  0  0  0  0  0  0  0  0  0  0  0
   -2.8612    2.5328    2.7716 C   0  0  0  0  0  0  0  0  0  0  0  0
    2.7474   -0.6826   -1.9305 C   0  0  0  0  0  0  0  0  0  0  0  0
   -5.1552    1.0178    2.9147 C   0  0  0  0  0  0  0  0  0  0  0  0
    1.3679    4.1229   -1.7943 H   0  0  0  0  0  0  0  0  0  0  0  0
    3.7947    4.1769    0.1321 H   0  0  0  0  0  0  0  0  0  0  0  0
    3.8475    4.7127   -1.5502 H   0  0  0  0  0  0  0  0  0  0  0  0
   -0.0560    4.9088    1.3346 H   0  0  0  0  0  0  0  0  0  0  0  0
    1.5243    4.4386    2.0179 H   0  0  0  0  0  0  0  0  0  0  0  0
    4.2239    7.1352   -1.2247 H   0  0  0  0  0  0  0  0  0  0  0  0
    0.1946    7.2633    1.6740 H   0  0  0  0  0  0  0  0  0  0  0  0
    3.3041    9.3006   -0.4585 H   0  0  0  0  0  0  0  0  0  0  0  0
    1.2778    9.3642    0.9700 H   0  0  0  0  0  0  0  0  0  0  0  0
    0.4764    2.6468    2.9529 H   0  0  0  0  0  0  0  0  0  0  0  0
    4.4543    0.6409   -1.7237 H   0  0  0  0  0  0  0  0  0  0  0  0
    3.9845   -0.1866   -0.2472 H   0  0  0  0  0  0  0  0  0  0  0  0
   -1.6149    2.6381    4.5489 H   0  0  0  0  0  0  0  0  0  0  0  0
    2.3979   -0.2403   -2.8688 H   0  0  0  0  0  0  0  0  0  0  0  0
    3.3254   -1.5799   -2.1687 H   0  0  0  0  0  0  0  0  0  0  0  0
    1.8589   -0.9741   -1.3611 H   0  0  0  0  0  0  0  0  0  0  0  0
   -5.3083    1.0631    1.8340 H   0  0  0  0  0  0  0  0  0  0  0  0
   -4.5046    0.1732    3.1580 H   0  0  0  0  0  0  0  0  0  0  0  0
   -6.1253    0.8552    3.3928 H   0  0  0  0  0  0  0  0  0  0  0  0
  1 18  1  0  0  0  0
  1 22  1  0  0  0  0
  2 22  1  0  0  0  0
  2 24  1  0  0  0  0
  3 12  1  0  0  0  0
  3 20  1  0  0  0  0
  4 12  2  0  0  0  0
  5 13  2  0  0  0  0
  6  7  1  0  0  0  0
  6  9  1  0  0  0  0
  6 13  1  0  0  0  0
  7  8  1  0  0  0  0
  7 12  1  0  0  0  0
  7 25  1  0  0  0  0
  8 10  1  0  0  0  0
  8 26  1  0  0  0  0
  8 27  1  0  0  0  0
  9 11  1  0  0  0  0
  9 28  1  0  0  0  0
  9 29  1  0  0  0  0
 10 11  2  0  0  0  0
 10 14  1  0  0  0  0
 11 15  1  0  0  0  0
 13 18  1  0  0  0  0
 14 16  2  0  0  0  0
 14 30  1  0  0  0  0
 15 17  2  0  0  0  0
 15 31  1  0  0  0  0
 16 17  1  0  0  0  0
 16 32  1  0  0  0  0
 17 33  1  0  0  0  0
 18 19  2  0  0  0  0
 19 21  1  0  0  0  0
 19 34  1  0  0  0  0
 20 23  1  0  0  0  0
 20 35  1  0  0  0  0
 20 36  1  0  0  0  0
 21 22  2  0  0  0  0
 21 37  1  0  0  0  0
 23 38  1  0  0  0  0
 23 39  1  0  0  0  0
 23 40  1  0  0  0  0
 24 41  1  0  0  0  0
 24 42  1  0  0  0  0
 24 43  1  0  0  0  0
M  END
>  <Mol_ID>
5953

>  <Formula>
C18H19NO3S2

>  <MolWeight>
361.47836

>  <Cat>
S0502

>  <Name>
SR8278

>  <Synonyms>
N/A

>  <Target>
Others

>  <Form>
Free Base

>  <CAS>
1254944-66-5

>  <URL>
http://www.selleckchem.com/products/sr-8278.html

$$$$
