SR 0987
 OpenBabel08302521243D

 36 37  0  0  0  0  0  0  0  0999 V2000
    0.7461    2.4881    0.6051 O   0  0  0  0  0  0  0  0  0  0  0  0
    2.6471    2.0312    7.1475 O   0  0  0  0  0  0  0  0  0  0  0  0
    1.8621   -0.0155    6.3583 N   0  0  0  0  0  0  0  0  0  0  0  0
    0.4890    1.0502    0.8326 C   0  0  0  0  0  0  0  0  0  0  0  0
    0.8061    0.7998    2.3202 C   0  0  0  0  0  0  0  0  0  0  0  0
   -0.9933    0.7602    0.4810 C   0  0  0  0  0  0  0  0  0  0  0  0
    1.4332    0.2294   -0.0899 C   0  0  0  0  0  0  0  0  0  0  0  0
    1.3778    1.8011    3.1238 C   0  0  0  0  0  0  0  0  0  0  0  0
    0.5662   -0.4486    2.9158 C   0  0  0  0  0  0  0  0  0  0  0  0
    1.4792    0.3190    5.0390 C   0  0  0  0  0  0  0  0  0  0  0  0
    1.7018    1.5655    4.4634 C   0  0  0  0  0  0  0  0  0  0  0  0
    0.8942   -0.6822    4.2588 C   0  0  0  0  0  0  0  0  0  0  0  0
    2.4825    0.8212    7.2719 C   0  0  0  0  0  0  0  0  0  0  0  0
    3.0181    0.1809    8.5032 C   0  0  0  0  0  0  0  0  0  0  0  0
    3.1705    0.9796    9.6435 C   0  0  0  0  0  0  0  0  0  0  0  0
    3.4626   -1.1499    8.5329 C   0  0  0  0  0  0  0  0  0  0  0  0
    3.7594    0.4670   10.7983 C   0  0  0  0  0  0  0  0  0  0  0  0
    4.0500   -1.6643    9.6950 C   0  0  0  0  0  0  0  0  0  0  0  0
    4.2000   -0.8565   10.8220 C   0  0  0  0  0  0  0  0  0  0  0  0
   -1.5494    1.8596   -0.1035 F   0  0  0  0  0  0  0  0  0  0  0  0
   -1.2301   -0.2749   -0.3409 F   0  0  0  0  0  0  0  0  0  0  0  0
   -1.7476    0.5404    1.5901 F   0  0  0  0  0  0  0  0  0  0  0  0
    2.1004    1.0274   -0.9638 F   0  0  0  0  0  0  0  0  0  0  0  0
    2.3964   -0.4252    0.6136 F   0  0  0  0  0  0  0  0  0  0  0  0
    0.8295   -0.7176   -0.8360 F   0  0  0  0  0  0  0  0  0  0  0  0
   -0.0744    2.9697    0.8248 H   0  0  0  0  0  0  0  0  0  0  0  0
    1.6655   -0.9616    6.6525 H   0  0  0  0  0  0  0  0  0  0  0  0
    1.6094    2.7906    2.7246 H   0  0  0  0  0  0  0  0  0  0  0  0
    0.1353   -1.2691    2.3449 H   0  0  0  0  0  0  0  0  0  0  0  0
    2.1490    2.3852    5.0156 H   0  0  0  0  0  0  0  0  0  0  0  0
    0.7036   -1.6681    4.6741 H   0  0  0  0  0  0  0  0  0  0  0  0
    2.8496    2.0206    9.6262 H   0  0  0  0  0  0  0  0  0  0  0  0
    3.4115   -1.7871    7.6548 H   0  0  0  0  0  0  0  0  0  0  0  0
    3.8863    1.1014   11.6714 H   0  0  0  0  0  0  0  0  0  0  0  0
    4.4147   -2.6886    9.7136 H   0  0  0  0  0  0  0  0  0  0  0  0
    4.6798   -1.2499   11.7149 H   0  0  0  0  0  0  0  0  0  0  0  0
  1  4  1  0  0  0  0
  1 26  1  0  0  0  0
  2 13  2  0  0  0  0
  3 10  1  0  0  0  0
  3 13  1  0  0  0  0
  3 27  1  0  0  0  0
  4  5  1  0  0  0  0
  4  6  1  0  0  0  0
  4  7  1  0  0  0  0
  5  8  2  0  0  0  0
  5  9  1  0  0  0  0
  6 20  1  0  0  0  0
  6 21  1  0  0  0  0
  6 22  1  0  0  0  0
  7 23  1  0  0  0  0
  7 24  1  0  0  0  0
  7 25  1  0  0  0  0
  8 11  1  0  0  0  0
  8 28  1  0  0  0  0
  9 12  2  0  0  0  0
  9 29  1  0  0  0  0
 10 11  2  0  0  0  0
 10 12  1  0  0  0  0
 11 30  1  0  0  0  0
 12 31  1  0  0  0  0
 13 14  1  0  0  0  0
 14 15  2  0  0  0  0
 14 16  1  0  0  0  0
 15 17  1  0  0  0  0
 15 32  1  0  0  0  0
 16 18  2  0  0  0  0
 16 33  1  0  0  0  0
 17 19  2  0  0  0  0
 17 34  1  0  0  0  0
 18 19  1  0  0  0  0
 18 35  1  0  0  0  0
 19 36  1  0  0  0  0
M  END
>  <Mol_ID>
5038

>  <Formula>
C16H10ClF6NO2

>  <MolWeight>
397.6995192

>  <Cat>
S0094

>  <Name>
SR 0987

>  <Synonyms>
N/A

>  <Target>
Interleukins,PD-1/PD-L1,ROR

>  <Form>
free base

>  <CAS>
303126-97-8

>  <URL>
http://www.selleckchem.com/products/sr0987.html

$$$$
