SSE15206
 OpenBabel08302521223D

 47 49  0  0  0  0  0  0  0  0999 V2000
   -0.7918   -1.0456    0.3662 C   0  0  0  0  0  0  0  0  0  0  0  0
    0.5439   -1.3940    0.1353 C   0  0  0  0  0  0  0  0  0  0  0  0
    1.5209   -0.3860    0.1720 C   0  0  0  0  0  0  0  0  0  0  0  0
    1.1889    0.9512    0.4356 C   0  0  0  0  0  0  0  0  0  0  0  0
   -0.1603    1.2899    0.6623 C   0  0  0  0  0  0  0  0  0  0  0  0
   -1.1416    0.2758    0.6578 C   0  0  0  0  0  0  0  0  0  0  0  0
    0.9106   -2.8389   -0.1350 C   0  0  3  0  0  0  0  0  0  0  0  0
    1.4839   -3.0163   -1.5332 C   0  0  0  0  0  0  0  0  0  0  0  0
    2.6066   -3.9729   -1.2454 C   0  0  0  0  0  0  0  0  0  0  0  0
    2.9061   -4.1148    0.0092 N   0  0  0  0  0  0  0  0  0  0  0  0
    1.9680   -3.3813    0.7360 N   0  0  0  0  0  0  0  0  0  0  0  0
    3.3040   -4.6717   -2.3530 C   0  0  0  0  0  0  0  0  0  0  0  0
    3.0160   -4.3614   -3.6903 C   0  0  0  0  0  0  0  0  0  0  0  0
    3.6474   -5.0558   -4.7242 C   0  0  0  0  0  0  0  0  0  0  0  0
    4.5697   -6.0585   -4.4307 C   0  0  0  0  0  0  0  0  0  0  0  0
    4.8641   -6.3675   -3.1032 C   0  0  0  0  0  0  0  0  0  0  0  0
    4.2332   -5.6770   -2.0629 C   0  0  0  0  0  0  0  0  0  0  0  0
    1.9005   -3.5620    2.1117 C   0  0  0  0  0  0  0  0  0  0  0  0
    3.0269   -4.1151    2.6447 N   0  0  0  0  0  0  0  0  0  0  0  0
    0.6384   -3.1823    3.1316 S   0  0  0  0  0  0  0  0  0  0  0  0
   -2.4431    0.6577    0.8920 O   0  0  0  0  0  0  0  0  0  0  0  0
   -3.2382   -0.2930    1.5935 C   0  0  0  0  0  0  0  0  0  0  0  0
   -0.6358    2.5427    0.9772 O   0  0  0  0  0  0  0  0  0  0  0  0
    0.0511    3.6612    0.4371 C   0  0  0  0  0  0  0  0  0  0  0  0
    2.1288    1.9467    0.5121 O   0  0  0  0  0  0  0  0  0  0  0  0
    3.4973    1.5934    0.3587 C   0  0  0  0  0  0  0  0  0  0  0  0
   -1.5543   -1.8177    0.3278 H   0  0  0  0  0  0  0  0  0  0  0  0
    2.5527   -0.6816    0.0039 H   0  0  0  0  0  0  0  0  0  0  0  0
    0.0353   -3.4882   -0.0084 H   0  0  0  0  0  0  0  0  0  0  0  0
    0.7437   -3.4254   -2.2253 H   0  0  0  0  0  0  0  0  0  0  0  0
    1.9151   -2.1021   -1.9577 H   0  0  0  0  0  0  0  0  0  0  0  0
    2.3047   -3.5878   -3.9562 H   0  0  0  0  0  0  0  0  0  0  0  0
    3.4157   -4.8157   -5.7597 H   0  0  0  0  0  0  0  0  0  0  0  0
    5.0574   -6.5984   -5.2372 H   0  0  0  0  0  0  0  0  0  0  0  0
    5.5818   -7.1524   -2.8767 H   0  0  0  0  0  0  0  0  0  0  0  0
    4.4647   -5.9377   -1.0335 H   0  0  0  0  0  0  0  0  0  0  0  0
    3.0661   -4.3622    3.6235 H   0  0  0  0  0  0  0  0  0  0  0  0
    3.7159   -4.4658    1.9913 H   0  0  0  0  0  0  0  0  0  0  0  0
   -3.6124   -1.0602    0.9081 H   0  0  0  0  0  0  0  0  0  0  0  0
   -2.6948   -0.7475    2.4296 H   0  0  0  0  0  0  0  0  0  0  0  0
   -4.1045    0.2334    2.0056 H   0  0  0  0  0  0  0  0  0  0  0  0
    0.9044    3.9311    1.0660 H   0  0  0  0  0  0  0  0  0  0  0  0
    0.3489    3.5026   -0.6050 H   0  0  0  0  0  0  0  0  0  0  0  0
   -0.6379    4.5118    0.4546 H   0  0  0  0  0  0  0  0  0  0  0  0
    3.8048    0.8471    1.0986 H   0  0  0  0  0  0  0  0  0  0  0  0
    3.6983    1.2496   -0.6614 H   0  0  0  0  0  0  0  0  0  0  0  0
    4.0960    2.4927    0.5310 H   0  0  0  0  0  0  0  0  0  0  0  0
  1  2  2  0  0  0  0
  1 27  1  0  0  0  0
  2  3  1  0  0  0  0
  2  7  1  0  0  0  0
  3  4  2  0  0  0  0
  3 28  1  0  0  0  0
  4  5  1  0  0  0  0
  4 25  1  0  0  0  0
  5  6  2  0  0  0  0
  5 23  1  0  0  0  0
  6  1  1  0  0  0  0
  6 21  1  0  0  0  0
  7  8  1  0  0  0  0
  7 29  1  0  0  0  0
  8  9  1  0  0  0  0
  8 30  1  0  0  0  0
  8 31  1  0  0  0  0
  9 10  2  0  0  0  0
  9 12  1  0  0  0  0
 10 11  1  0  0  0  0
 11  7  1  0  0  0  0
 11 18  1  0  0  0  0
 12 13  2  0  0  0  0
 13 14  1  0  0  0  0
 13 32  1  0  0  0  0
 14 15  2  0  0  0  0
 14 33  1  0  0  0  0
 15 16  1  0  0  0  0
 15 34  1  0  0  0  0
 16 17  2  0  0  0  0
 16 35  1  0  0  0  0
 17 12  1  0  0  0  0
 17 36  1  0  0  0  0
 18 19  1  0  0  0  0
 18 20  2  0  0  0  0
 19 37  1  0  0  0  0
 19 38  1  0  0  0  0
 21 22  1  0  0  0  0
 22 39  1  0  0  0  0
 22 40  1  0  0  0  0
 22 41  1  0  0  0  0
 23 24  1  0  0  0  0
 24 42  1  0  0  0  0
 24 43  1  0  0  0  0
 24 44  1  0  0  0  0
 25 26  1  0  0  0  0
 26 45  1  0  0  0  0
 26 46  1  0  0  0  0
 26 47  1  0  0  0  0
M  END
>  <Mol_ID>
4602

>  <Formula>
C19H21N3O3S

>  <MolWeight>
371.45334

>  <Cat>
S8789

>  <Name>
SSE15206

>  <Synonyms>
N/A

>  <Target>
Microtubule Associated

>  <Form>
Free Base

>  <CAS>
1370046-40-4

>  <URL>
http://www.selleckchem.com/products/sse15206.html

$$$$
