SSR128129E (SSR).cdx
 OpenBabel08302519583D

 40 42  0  0  0  0  0  0  0  0999 V2000
   -2.0451   -0.8131   -0.0207 C   0  0  0  0  0  0  0  0  0  0  0  0
   -2.1142    0.6216   -0.1970 C   0  0  0  0  0  0  0  0  0  0  0  0
   -0.9721    1.3261   -0.2653 C   0  0  0  0  0  0  0  0  0  0  0  0
    0.2716    0.6905   -0.1024 N   0  0  0  0  0  0  0  0  0  0  0  0
    0.3521   -0.6912    0.0205 C   0  0  0  0  0  0  0  0  0  0  0  0
   -0.8613   -1.4434    0.0599 C   0  0  0  0  0  0  0  0  0  0  0  0
    1.5667    1.2164   -0.0337 C   0  0  0  0  0  0  0  0  0  0  0  0
    2.4604    0.1251    0.0085 C   0  0  0  0  0  0  0  0  0  0  0  0
    1.6729   -1.0655    0.0420 C   0  0  0  0  0  0  0  0  0  0  0  0
    1.9624   -2.3887    0.0912 O   0  0  0  0  0  0  0  0  0  0  0  0
    3.3279   -2.7520    0.0688 C   0  0  0  0  0  0  0  0  0  0  0  0
    3.9537    0.2185    0.0285 C   0  0  0  0  0  0  0  0  0  0  0  0
    1.9563    2.6291   -0.0812 C   0  0  0  0  0  0  0  0  0  0  0  0
    3.0145    3.0006   -0.5898 O   0  0  0  0  0  0  0  0  0  0  0  0
    1.1052    3.7248    0.4667 C   0  0  0  0  0  0  0  0  0  0  0  0
    0.2340    3.5432    1.5429 C   0  0  0  0  0  0  0  0  0  0  0  0
   -0.6781    4.5547    1.8806 C   0  0  0  0  0  0  0  0  0  0  0  0
   -0.6603    5.7922    1.2178 C   0  0  0  0  0  0  0  0  0  0  0  0
    0.2851    6.0008    0.2006 C   0  0  0  0  0  0  0  0  0  0  0  0
    1.1685    4.9757   -0.1609 C   0  0  0  0  0  0  0  0  0  0  0  0
    0.3892    7.2717   -0.5674 C   0  0  0  0  0  0  0  0  0  0  0  0
   -0.8013    7.8712   -0.7757 O   0  0  0  0  0  0  0  0  0  0  0  0
    1.4425    7.6988   -1.0037 O   0  0  0  0  0  0  0  0  0  0  0  0
   -1.6896    6.7211    1.4967 N   0  0  0  0  0  0  0  0  0  0  0  0
   -2.9740   -1.3740    0.0109 H   0  0  0  0  0  0  0  0  0  0  0  0
   -3.0875    1.0907   -0.2910 H   0  0  0  0  0  0  0  0  0  0  0  0
   -0.9964    2.3897   -0.4441 H   0  0  0  0  0  0  0  0  0  0  0  0
   -0.8077   -2.5240    0.1537 H   0  0  0  0  0  0  0  0  0  0  0  0
    3.8275   -2.3992   -0.8377 H   0  0  0  0  0  0  0  0  0  0  0  0
    3.8376   -2.4196    0.9768 H   0  0  0  0  0  0  0  0  0  0  0  0
    3.3783   -3.8454    0.0559 H   0  0  0  0  0  0  0  0  0  0  0  0
    4.3572   -0.2904    0.9083 H   0  0  0  0  0  0  0  0  0  0  0  0
    4.3757   -0.2315   -0.8752 H   0  0  0  0  0  0  0  0  0  0  0  0
    4.3306    1.2402    0.0796 H   0  0  0  0  0  0  0  0  0  0  0  0
    0.2064    2.6030    2.0916 H   0  0  0  0  0  0  0  0  0  0  0  0
   -1.4043    4.3531    2.6649 H   0  0  0  0  0  0  0  0  0  0  0  0
    1.8820    5.1443   -0.9685 H   0  0  0  0  0  0  0  0  0  0  0  0
   -1.5483    7.3681   -0.3812 H   0  0  0  0  0  0  0  0  0  0  0  0
   -1.3280    7.6714    1.6205 H   0  0  0  0  0  0  0  0  0  0  0  0
   -2.2523    6.4676    2.3097 H   0  0  0  0  0  0  0  0  0  0  0  0
  1  2  1  0  0  0  0
  1 25  1  0  0  0  0
  2  3  2  0  0  0  0
  2 26  1  0  0  0  0
  3  4  1  0  0  0  0
  3 27  1  0  0  0  0
  4  5  1  0  0  0  0
  4  7  1  0  0  0  0
  6  1  2  0  0  0  0
  6  5  1  0  0  0  0
  6 28  1  0  0  0  0
  7  8  2  0  0  0  0
  7 13  1  0  0  0  0
  8  9  1  0  0  0  0
  8 12  1  0  0  0  0
  9  5  2  0  0  0  0
  9 10  1  0  0  0  0
 10 11  1  0  0  0  0
 11 29  1  0  0  0  0
 11 30  1  0  0  0  0
 11 31  1  0  0  0  0
 12 32  1  0  0  0  0
 12 33  1  0  0  0  0
 12 34  1  0  0  0  0
 13 14  2  0  0  0  0
 13 15  1  0  0  0  0
 15 16  2  0  0  0  0
 16 17  1  0  0  0  0
 16 35  1  0  0  0  0
 17 18  2  0  0  0  0
 17 36  1  0  0  0  0
 18 19  1  0  0  0  0
 18 24  1  0  0  0  0
 19 20  2  0  0  0  0
 19 21  1  0  0  0  0
 20 15  1  0  0  0  0
 20 37  1  0  0  0  0
 21 22  1  0  0  0  0
 21 23  2  0  0  0  0
 22 38  1  0  0  0  0
 24 39  1  0  0  0  0
 24 40  1  0  0  0  0
M  END
>  <Mol_ID>
2322

>  <Formula>
C18H15N2NaO4

>  <MolWeight>
346.31247

>  <Cat>
S7167

>  <Name>
SSR128129E

>  <Synonyms>
SSR

>  <Target>
FGFR

>  <Form>
free base

>  <CAS>
848318-25-2

>  <URL>
http://selleckchem.com/products/ssr128129e.html

$$$$
