STF-118804.cdx
 OpenBabel08302519583D

 56 59  0  0  0  0  0  0  0  0999 V2000
   -0.6480    6.6299    4.6738 C   0  0  0  0  0  0  0  0  0  0  0  0
   -1.5908    5.6683    4.5775 N   0  0  0  0  0  0  0  0  0  0  0  0
   -1.5361    4.8709    3.4868 C   0  0  0  0  0  0  0  0  0  0  0  0
   -0.5892    4.9911    2.4742 C   0  0  0  0  0  0  0  0  0  0  0  0
    0.3704    5.9995    2.6129 C   0  0  0  0  0  0  0  0  0  0  0  0
    0.3420    6.8339    3.7270 C   0  0  0  0  0  0  0  0  0  0  0  0
   -0.5801    4.0478    1.3069 C   0  0  0  0  0  0  0  0  0  0  0  0
   -0.7466    4.7507    0.0538 N   0  0  0  0  0  0  0  0  0  0  0  0
    0.2126    4.7348   -0.9333 C   0  0  0  0  0  0  0  0  0  0  0  0
   -0.1131    5.4919   -2.1709 C   0  0  0  0  0  0  0  0  0  0  0  0
    1.2924    4.1655   -0.8265 O   0  0  0  0  0  0  0  0  0  0  0  0
    0.9342    6.0142   -2.9395 C   0  0  0  0  0  0  0  0  0  0  0  0
    0.6584    6.7354   -4.1061 C   0  0  0  0  0  0  0  0  0  0  0  0
   -0.6642    6.9377   -4.5294 C   0  0  0  0  0  0  0  0  0  0  0  0
   -1.7050    6.3933   -3.7635 C   0  0  0  0  0  0  0  0  0  0  0  0
   -1.4343    5.6704   -2.5976 C   0  0  0  0  0  0  0  0  0  0  0  0
   -0.9791    7.6681   -5.7515 C   0  0  0  0  0  0  0  0  0  0  0  0
    0.0807    8.1568   -6.4659 O   0  0  0  0  0  0  0  0  0  0  0  0
   -0.4834    8.7231   -7.5719 C   0  0  0  0  0  0  0  0  0  0  0  0
   -1.8498    8.5592   -7.4807 C   0  0  0  0  0  0  0  0  0  0  0  0
   -2.1534    7.9099   -6.3037 N   0  0  0  0  0  0  0  0  0  0  0  0
    0.4439    9.3172   -8.5497 C   0  0  0  0  0  0  0  0  0  0  0  0
   -2.9166    8.9696   -8.4171 C   0  0  0  0  0  0  0  0  0  0  0  0
   -3.2597    7.7503   -9.6652 S   0  0  0  0  0  0  0  0  0  0  0  0
   -3.8137    6.3004   -8.7941 C   0  0  0  0  0  0  0  0  0  0  0  0
   -4.3911    8.2293  -10.4428 O   0  0  0  0  0  0  0  0  0  0  0  0
   -2.0196    7.4132  -10.3445 O   0  0  0  0  0  0  0  0  0  0  0  0
   -5.1745    6.1422   -8.5165 C   0  0  0  0  0  0  0  0  0  0  0  0
   -5.6262    4.9579   -7.9290 C   0  0  0  0  0  0  0  0  0  0  0  0
   -4.7271    3.9268   -7.6273 C   0  0  0  0  0  0  0  0  0  0  0  0
   -3.3645    4.1007   -7.9082 C   0  0  0  0  0  0  0  0  0  0  0  0
   -2.9058    5.2817   -8.4957 C   0  0  0  0  0  0  0  0  0  0  0  0
   -5.2083    2.6311   -7.0415 C   0  0  0  0  0  0  0  0  0  0  0  0
   -0.7090    7.2503    5.5628 H   0  0  0  0  0  0  0  0  0  0  0  0
   -2.3056    4.1033    3.4550 H   0  0  0  0  0  0  0  0  0  0  0  0
    1.1437    6.1292    1.8587 H   0  0  0  0  0  0  0  0  0  0  0  0
    1.0773    7.6160    3.8561 H   0  0  0  0  0  0  0  0  0  0  0  0
    0.3395    3.4550    1.3138 H   0  0  0  0  0  0  0  0  0  0  0  0
   -1.4220    3.3501    1.3730 H   0  0  0  0  0  0  0  0  0  0  0  0
   -1.5525    5.3530   -0.0331 H   0  0  0  0  0  0  0  0  0  0  0  0
    1.9677    5.8612   -2.6340 H   0  0  0  0  0  0  0  0  0  0  0  0
    1.4906    7.1302   -4.6865 H   0  0  0  0  0  0  0  0  0  0  0  0
   -2.7392    6.5189   -4.0829 H   0  0  0  0  0  0  0  0  0  0  0  0
   -2.2668    5.2304   -2.0562 H   0  0  0  0  0  0  0  0  0  0  0  0
    1.0169   10.1271   -8.0875 H   0  0  0  0  0  0  0  0  0  0  0  0
    1.1477    8.5620   -8.9126 H   0  0  0  0  0  0  0  0  0  0  0  0
   -0.0919    9.7267   -9.4105 H   0  0  0  0  0  0  0  0  0  0  0  0
   -3.8517    9.1778   -7.8883 H   0  0  0  0  0  0  0  0  0  0  0  0
   -2.6274    9.8819   -8.9505 H   0  0  0  0  0  0  0  0  0  0  0  0
   -5.8922    6.9177   -8.7745 H   0  0  0  0  0  0  0  0  0  0  0  0
   -6.6892    4.8366   -7.7295 H   0  0  0  0  0  0  0  0  0  0  0  0
   -2.6553    3.3049   -7.6895 H   0  0  0  0  0  0  0  0  0  0  0  0
   -1.8487    5.3889   -8.7277 H   0  0  0  0  0  0  0  0  0  0  0  0
   -5.0057    1.8081   -7.7343 H   0  0  0  0  0  0  0  0  0  0  0  0
   -4.7032    2.4340   -6.0906 H   0  0  0  0  0  0  0  0  0  0  0  0
   -6.2864    2.6514   -6.8512 H   0  0  0  0  0  0  0  0  0  0  0  0
  1  2  2  0  0  0  0
  1 34  1  0  0  0  0
  2  3  1  0  0  0  0
  3  4  2  0  0  0  0
  3 35  1  0  0  0  0
  4  5  1  0  0  0  0
  4  7  1  0  0  0  0
  5  6  2  0  0  0  0
  5 36  1  0  0  0  0
  6  1  1  0  0  0  0
  6 37  1  0  0  0  0
  7  8  1  0  0  0  0
  7 38  1  0  0  0  0
  7 39  1  0  0  0  0
  8  9  1  0  0  0  0
  8 40  1  0  0  0  0
  9 10  1  0  0  0  0
  9 11  2  0  0  0  0
 10 12  2  0  0  0  0
 12 13  1  0  0  0  0
 12 41  1  0  0  0  0
 13 14  2  0  0  0  0
 13 42  1  0  0  0  0
 14 15  1  0  0  0  0
 14 17  1  0  0  0  0
 15 16  2  0  0  0  0
 15 43  1  0  0  0  0
 16 10  1  0  0  0  0
 16 44  1  0  0  0  0
 17 18  1  0  0  0  0
 18 19  1  0  0  0  0
 19 20  2  0  0  0  0
 19 22  1  0  0  0  0
 20 21  1  0  0  0  0
 20 23  1  0  0  0  0
 21 17  2  0  0  0  0
 22 45  1  0  0  0  0
 22 46  1  0  0  0  0
 22 47  1  0  0  0  0
 23 24  1  0  0  0  0
 23 48  1  0  0  0  0
 23 49  1  0  0  0  0
 24 25  1  0  0  0  0
 24 26  2  0  0  0  0
 24 27  2  0  0  0  0
 25 28  2  0  0  0  0
 28 29  1  0  0  0  0
 28 50  1  0  0  0  0
 29 30  2  0  0  0  0
 29 51  1  0  0  0  0
 30 31  1  0  0  0  0
 30 33  1  0  0  0  0
 31 32  2  0  0  0  0
 31 52  1  0  0  0  0
 32 25  1  0  0  0  0
 32 53  1  0  0  0  0
 33 54  1  0  0  0  0
 33 55  1  0  0  0  0
 33 56  1  0  0  0  0
M  END
>  <Mol_ID>
2336

>  <Formula>
C25H23N3O4S

>  <MolWeight>
461.53282

>  <Cat>
S7316

>  <Name>
STF-118804

>  <Synonyms>
N/A

>  <Target>
NAMPT

>  <Form>
free base

>  <CAS>
894187-61-2

>  <URL>
http://selleckchem.com/products/stf-118804.html

$$$$
