STK414603
 OpenBabel08302521343D

 25 26  0  0  0  0  0  0  0  0999 V2000
    1.3613   -0.0317    0.1973 C   0  0  0  0  0  0  0  0  0  0  0  0
    0.4550   -0.5292   -0.7511 C   0  0  0  0  0  0  0  0  0  0  0  0
   -0.8945   -0.1805   -0.6935 C   0  0  0  0  0  0  0  0  0  0  0  0
   -1.3550    0.6565    0.3201 C   0  0  0  0  0  0  0  0  0  0  0  0
   -0.4697    1.1304    1.2869 C   0  0  0  0  0  0  0  0  0  0  0  0
    0.8820    0.7846    1.2305 C   0  0  0  0  0  0  0  0  0  0  0  0
    3.4372    0.0089   -1.2342 C   0  0  0  0  0  0  0  0  0  0  0  0
    2.8271   -0.3799    0.1051 C   0  0  0  0  0  0  0  0  0  0  0  0
    3.6313   -0.8416   -2.0977 O   0  0  0  0  0  0  0  0  0  0  0  0
    3.6964    1.3604   -1.3269 N   0  0  0  0  0  0  0  0  0  0  0  0
    4.3126    3.6291   -2.4120 S   0  0  0  0  0  0  0  0  0  0  0  0
    4.2215    1.9226   -2.4568 C   0  0  0  0  0  0  0  0  0  0  0  0
    4.6585    1.3471   -3.5455 N   0  0  0  0  0  0  0  0  0  0  0  0
    5.0814    2.3121   -4.4371 C   0  0  0  0  0  0  0  0  0  0  0  0
    4.9617    3.6152   -4.0016 C   0  0  0  0  0  0  0  0  0  0  0  0
    0.7982   -1.1864   -1.5500 H   0  0  0  0  0  0  0  0  0  0  0  0
   -1.5841   -0.5611   -1.4428 H   0  0  0  0  0  0  0  0  0  0  0  0
   -2.4051    0.9341    0.3590 H   0  0  0  0  0  0  0  0  0  0  0  0
   -0.8349    1.7700    2.0865 H   0  0  0  0  0  0  0  0  0  0  0  0
    1.5526    1.1579    2.0010 H   0  0  0  0  0  0  0  0  0  0  0  0
    3.3982    0.1107    0.9030 H   0  0  0  0  0  0  0  0  0  0  0  0
    2.9562   -1.4590    0.2510 H   0  0  0  0  0  0  0  0  0  0  0  0
    3.4055    1.9918   -0.5963 H   0  0  0  0  0  0  0  0  0  0  0  0
    5.4700    2.0058   -5.4008 H   0  0  0  0  0  0  0  0  0  0  0  0
    5.2186    4.5257   -4.5234 H   0  0  0  0  0  0  0  0  0  0  0  0
  1  2  2  0  0  0  0
  1  6  1  0  0  0  0
  1  8  1  0  0  0  0
  2  3  1  0  0  0  0
  2 16  1  0  0  0  0
  3  4  2  0  0  0  0
  3 17  1  0  0  0  0
  4  5  1  0  0  0  0
  4 18  1  0  0  0  0
  5  6  2  0  0  0  0
  5 19  1  0  0  0  0
  6 20  1  0  0  0  0
  7  8  1  0  0  0  0
  7  9  2  0  0  0  0
  7 10  1  0  0  0  0
  8 21  1  0  0  0  0
  8 22  1  0  0  0  0
 10 12  1  0  0  0  0
 10 23  1  0  0  0  0
 11 12  1  0  0  0  0
 11 15  1  0  0  0  0
 12 13  2  0  0  0  0
 13 14  1  0  0  0  0
 14 15  2  0  0  0  0
 14 24  1  0  0  0  0
 15 25  1  0  0  0  0
M  END
>  <Mol_ID>
6469

>  <Formula>
C11H9ClN2OS

>  <MolWeight>
252.71996

>  <Cat>
E2523

>  <Name>
STK414603

>  <Target>
Others

>  <Form>
free base

>  <CAS>
796115-75-8

>  <URL>
http://www.selleckchem.com/products/stk414603.html

$$$$
