STO-609.cdx
 OpenBabel08302521403D

 34 38  0  0  0  0  0  0  0  0999 V2000
    3.1272    1.0075   -0.3466 C   0  0  0  0  0  0  0  0  0  0  0  0
    4.3232    0.2742   -0.3579 C   0  0  0  0  0  0  0  0  0  0  0  0
    4.3092   -1.1302   -0.2397 C   0  0  0  0  0  0  0  0  0  0  0  0
    3.1040   -1.8184   -0.0095 C   0  0  0  0  0  0  0  0  0  0  0  0
    1.9065   -1.0651   -0.0218 C   0  0  0  0  0  0  0  0  0  0  0  0
    1.9131    0.3294   -0.2369 C   0  0  0  0  0  0  0  0  0  0  0  0
    3.0037   -3.1963    0.3311 C   0  0  0  0  0  0  0  0  0  0  0  0
    1.8737   -3.6656    1.0027 C   0  0  0  0  0  0  0  0  0  0  0  0
    0.6935   -2.9849    0.8230 C   0  0  0  0  0  0  0  0  0  0  0  0
    0.7065   -1.7361    0.2207 C   0  0  0  0  0  0  0  0  0  0  0  0
   -0.5454   -1.0722   -0.0180 C   0  0  0  0  0  0  0  0  0  0  0  0
   -0.5958    0.2970   -0.1500 N   0  0  0  0  0  0  0  0  0  0  0  0
    0.5738    1.0608   -0.2248 C   0  0  0  0  0  0  0  0  0  0  0  0
   -1.7199   -1.6485   -0.0684 N   0  0  0  0  0  0  0  0  0  0  0  0
   -2.5976   -0.6168   -0.0920 C   0  0  0  0  0  0  0  0  0  0  0  0
   -1.9461    0.6201   -0.1139 C   0  0  0  0  0  0  0  0  0  0  0  0
   -3.9939   -0.7040   -0.0536 C   0  0  0  0  0  0  0  0  0  0  0  0
   -4.7265    0.4727   -0.0069 C   0  0  0  0  0  0  0  0  0  0  0  0
   -4.0687    1.7122   -0.0141 C   0  0  0  0  0  0  0  0  0  0  0  0
   -2.6671    1.8219   -0.0801 C   0  0  0  0  0  0  0  0  0  0  0  0
    0.5077    2.2753   -0.2761 O   0  0  0  0  0  0  0  0  0  0  0  0
    3.6785   -4.2183   -0.5121 C   0  0  0  0  0  0  0  0  0  0  0  0
    3.7867   -5.4474    0.0443 O   0  0  0  0  0  0  0  0  0  0  0  0
    3.9697   -4.0086   -1.6828 O   0  0  0  0  0  0  0  0  0  0  0  0
    3.1606    2.0920   -0.3905 H   0  0  0  0  0  0  0  0  0  0  0  0
    5.2738    0.7919   -0.4146 H   0  0  0  0  0  0  0  0  0  0  0  0
    5.2571   -1.6607   -0.2334 H   0  0  0  0  0  0  0  0  0  0  0  0
    1.8342   -4.6145    1.5210 H   0  0  0  0  0  0  0  0  0  0  0  0
   -0.2478   -3.4294    1.1332 H   0  0  0  0  0  0  0  0  0  0  0  0
   -4.4701   -1.6779   -0.0365 H   0  0  0  0  0  0  0  0  0  0  0  0
   -5.8101    0.4275    0.0553 H   0  0  0  0  0  0  0  0  0  0  0  0
   -4.6631    2.6178    0.0440 H   0  0  0  0  0  0  0  0  0  0  0  0
   -2.1706    2.7854   -0.0755 H   0  0  0  0  0  0  0  0  0  0  0  0
    3.5204   -5.5203    0.9790 H   0  0  0  0  0  0  0  0  0  0  0  0
  1  2  2  0  0  0  0
  1 25  1  0  0  0  0
  2  3  1  0  0  0  0
  2 26  1  0  0  0  0
  3  4  2  0  0  0  0
  3 27  1  0  0  0  0
  4  5  1  0  0  0  0
  4  7  1  0  0  0  0
  5  6  2  0  0  0  0
  6  1  1  0  0  0  0
  7  8  2  0  0  0  0
  7 22  1  0  0  0  0
  8  9  1  0  0  0  0
  8 28  1  0  0  0  0
  9 10  2  0  0  0  0
  9 29  1  0  0  0  0
 10  5  1  0  0  0  0
 10 11  1  0  0  0  0
 11 12  1  0  0  0  0
 11 14  2  0  0  0  0
 12 13  1  0  0  0  0
 13  6  1  0  0  0  0
 13 21  2  0  0  0  0
 14 15  1  0  0  0  0
 15 16  2  0  0  0  0
 15 17  1  0  0  0  0
 16 12  1  0  0  0  0
 17 18  2  0  0  0  0
 17 30  1  0  0  0  0
 18 19  1  0  0  0  0
 18 31  1  0  0  0  0
 19 20  2  0  0  0  0
 19 32  1  0  0  0  0
 20 16  1  0  0  0  0
 20 33  1  0  0  0  0
 22 23  1  0  0  0  0
 22 24  2  0  0  0  0
 23 34  1  0  0  0  0
M  END
>  <Mol_ID>
8245

>  <Formula>
C19H10N2O3

>  <MolWeight>
314.2943

>  <Cat>
S8274

>  <Name>
STO-609

>  <Synonyms>
N/A

>  <Target>
AMPK,Autophagy,CaMK

>  <Form>
free base

>  <CAS>
52029-86-4

>  <URL>
http://selleckchem.com/products/sto-609.html

$$$$
