SU5204
 OpenBabel08302521273D

 35 37  0  0  0  0  0  0  0  0999 V2000
    1.0545   -0.0679    0.1382 O   0  0  0  0  0  0  0  0  0  0  0  0
    3.3077    0.8398    2.6904 O   0  0  0  0  0  0  0  0  0  0  0  0
    5.0580    2.2390    2.0753 N   0  0  0  0  0  0  0  0  0  0  0  0
    4.0299    3.6530    0.5938 C   0  0  0  0  0  0  0  0  0  0  0  0
    3.0373    2.6836    1.0820 C   0  0  0  0  0  0  0  0  0  0  0  0
    5.2285    3.3387    1.2434 C   0  0  0  0  0  0  0  0  0  0  0  0
    3.7483    1.7759    2.0540 C   0  0  0  0  0  0  0  0  0  0  0  0
    1.7328    2.6755    0.7725 C   0  0  0  0  0  0  0  0  0  0  0  0
    0.7002    1.8856    1.4611 C   0  0  0  0  0  0  0  0  0  0  0  0
    3.9625    4.7556   -0.2411 C   0  0  0  0  0  0  0  0  0  0  0  0
    6.3831    4.0759    1.0807 C   0  0  0  0  0  0  0  0  0  0  0  0
    0.3520    0.5637    1.1381 C   0  0  0  0  0  0  0  0  0  0  0  0
    5.1205    5.5259   -0.4151 C   0  0  0  0  0  0  0  0  0  0  0  0
    6.3202    5.1874    0.2383 C   0  0  0  0  0  0  0  0  0  0  0  0
    0.0263    2.5365    2.5102 C   0  0  0  0  0  0  0  0  0  0  0  0
   -0.7090   -0.0508    1.8234 C   0  0  0  0  0  0  0  0  0  0  0  0
   -0.9963    1.8999    3.2116 C   0  0  0  0  0  0  0  0  0  0  0  0
   -1.3730    0.6104    2.8586 C   0  0  0  0  0  0  0  0  0  0  0  0
    1.1433   -1.4898    0.2911 C   0  0  0  0  0  0  0  0  0  0  0  0
    2.3162   -2.0085   -0.5179 C   0  0  0  0  0  0  0  0  0  0  0  0
    5.7641    1.8190    2.6570 H   0  0  0  0  0  0  0  0  0  0  0  0
    1.3299    3.3846    0.0545 H   0  0  0  0  0  0  0  0  0  0  0  0
    3.0397    5.0399   -0.7350 H   0  0  0  0  0  0  0  0  0  0  0  0
    7.3006    3.8209    1.5986 H   0  0  0  0  0  0  0  0  0  0  0  0
    5.0922    6.4063   -1.0549 H   0  0  0  0  0  0  0  0  0  0  0  0
    7.2035    5.8060    0.0942 H   0  0  0  0  0  0  0  0  0  0  0  0
    0.3043    3.5497    2.7925 H   0  0  0  0  0  0  0  0  0  0  0  0
   -1.0412   -1.0520    1.5684 H   0  0  0  0  0  0  0  0  0  0  0  0
   -1.4982    2.4130    4.0269 H   0  0  0  0  0  0  0  0  0  0  0  0
   -2.1791    0.1129    3.3912 H   0  0  0  0  0  0  0  0  0  0  0  0
    1.3005   -1.7672    1.3414 H   0  0  0  0  0  0  0  0  0  0  0  0
    0.2221   -1.9555   -0.0793 H   0  0  0  0  0  0  0  0  0  0  0  0
    3.2393   -1.4922   -0.2358 H   0  0  0  0  0  0  0  0  0  0  0  0
    2.4474   -3.0827   -0.3560 H   0  0  0  0  0  0  0  0  0  0  0  0
    2.1571   -1.8330   -1.5865 H   0  0  0  0  0  0  0  0  0  0  0  0
  1 12  1  0  0  0  0
  1 19  1  0  0  0  0
  2  7  2  0  0  0  0
  3  6  1  0  0  0  0
  3  7  1  0  0  0  0
  3 21  1  0  0  0  0
  4  5  1  0  0  0  0
  4  6  2  0  0  0  0
  4 10  1  0  0  0  0
  5  7  1  0  0  0  0
  6 11  1  0  0  0  0
  8  9  1  0  0  0  0
  8  5  2  0  0  0  0
  8 22  1  0  0  0  0
  9 12  2  0  0  0  0
  9 15  1  0  0  0  0
 10 13  2  0  0  0  0
 10 23  1  0  0  0  0
 11 14  2  0  0  0  0
 11 24  1  0  0  0  0
 12 16  1  0  0  0  0
 13 14  1  0  0  0  0
 13 25  1  0  0  0  0
 14 26  1  0  0  0  0
 15 17  2  0  0  0  0
 15 27  1  0  0  0  0
 16 18  2  0  0  0  0
 16 28  1  0  0  0  0
 17 18  1  0  0  0  0
 17 29  1  0  0  0  0
 18 30  1  0  0  0  0
 19 20  1  0  0  0  0
 19 31  1  0  0  0  0
 19 32  1  0  0  0  0
 20 33  1  0  0  0  0
 20 34  1  0  0  0  0
 20 35  1  0  0  0  0
M  END
>  <Mol_ID>
5365

>  <Formula>
C17H15NO2

>  <MolWeight>
265.3065

>  <Cat>
S0290

>  <Name>
SU5204

>  <Synonyms>
N/A

>  <Target>
HER2,VEGFR

>  <Form>
Free Base

>  <CAS>
186611-11-0

>  <URL>
https://www.selleckchem.com/products/su5204.html

$$$$
