SU5214
 OpenBabel08302521243D

 32 34  0  0  0  0  0  0  0  0999 V2000
   -2.9191    0.9946    0.6494 O   0  0  0  0  0  0  0  0  0  0  0  0
   -3.2961   -1.8236   -2.5301 O   0  0  0  0  0  0  0  0  0  0  0  0
   -0.6764    1.5518    0.4312 N   0  0  0  0  0  0  0  0  0  0  0  0
    0.3098   -0.5172    0.3233 C   0  0  0  0  0  0  0  0  0  0  0  0
   -1.1456   -0.6927    0.3884 C   0  0  0  0  0  0  0  0  0  0  0  0
    0.5268    0.8643    0.3084 C   0  0  0  0  0  0  0  0  0  0  0  0
   -1.7536    0.6831    0.5049 C   0  0  0  0  0  0  0  0  0  0  0  0
   -1.7961   -1.8534    0.2132 C   0  0  0  0  0  0  0  0  0  0  0  0
    1.3725   -1.3945    0.2016 C   0  0  0  0  0  0  0  0  0  0  0  0
   -3.2422   -1.9458   -0.0144 C   0  0  0  0  0  0  0  0  0  0  0  0
    1.7801    1.4186    0.1607 C   0  0  0  0  0  0  0  0  0  0  0  0
    2.6551   -0.8545    0.0493 C   0  0  0  0  0  0  0  0  0  0  0  0
   -3.8547   -1.8941   -1.2820 C   0  0  0  0  0  0  0  0  0  0  0  0
    2.8555    0.5388    0.0213 C   0  0  0  0  0  0  0  0  0  0  0  0
   -4.0519   -2.0501    1.1332 C   0  0  0  0  0  0  0  0  0  0  0  0
   -5.2567   -1.9099   -1.3568 C   0  0  0  0  0  0  0  0  0  0  0  0
   -5.4441   -2.0743    1.0345 C   0  0  0  0  0  0  0  0  0  0  0  0
   -6.0484   -1.9947   -0.2129 C   0  0  0  0  0  0  0  0  0  0  0  0
   -1.8922   -1.8425   -2.7074 C   0  0  0  0  0  0  0  0  0  0  0  0
   -0.7874    2.5546    0.4637 H   0  0  0  0  0  0  0  0  0  0  0  0
   -1.2618   -2.7930    0.1153 H   0  0  0  0  0  0  0  0  0  0  0  0
    1.2270   -2.4694    0.2044 H   0  0  0  0  0  0  0  0  0  0  0  0
    1.9296    2.4917    0.1308 H   0  0  0  0  0  0  0  0  0  0  0  0
    3.5093   -1.5193   -0.0640 H   0  0  0  0  0  0  0  0  0  0  0  0
    3.8599    0.9333   -0.1179 H   0  0  0  0  0  0  0  0  0  0  0  0
   -3.6001   -2.0827    2.1226 H   0  0  0  0  0  0  0  0  0  0  0  0
   -5.7377   -1.8432   -2.3305 H   0  0  0  0  0  0  0  0  0  0  0  0
   -6.0533   -2.1320    1.9324 H   0  0  0  0  0  0  0  0  0  0  0  0
   -7.1310   -1.9889   -0.3004 H   0  0  0  0  0  0  0  0  0  0  0  0
   -1.4470   -0.8946   -2.3947 H   0  0  0  0  0  0  0  0  0  0  0  0
   -1.4261   -2.7047   -2.2233 H   0  0  0  0  0  0  0  0  0  0  0  0
   -1.6977   -1.9463   -3.7799 H   0  0  0  0  0  0  0  0  0  0  0  0
  1  7  2  0  0  0  0
  2 13  1  0  0  0  0
  2 19  1  0  0  0  0
  3  6  1  0  0  0  0
  3  7  1  0  0  0  0
  3 20  1  0  0  0  0
  4  5  1  0  0  0  0
  4  6  2  0  0  0  0
  4  9  1  0  0  0  0
  5  7  1  0  0  0  0
  5  8  2  0  0  0  0
  6 11  1  0  0  0  0
  8 10  1  0  0  0  0
  8 21  1  0  0  0  0
  9 12  2  0  0  0  0
  9 22  1  0  0  0  0
 10 13  2  0  0  0  0
 10 15  1  0  0  0  0
 11 14  2  0  0  0  0
 11 23  1  0  0  0  0
 12 14  1  0  0  0  0
 12 24  1  0  0  0  0
 13 16  1  0  0  0  0
 14 25  1  0  0  0  0
 15 17  2  0  0  0  0
 15 26  1  0  0  0  0
 16 18  2  0  0  0  0
 16 27  1  0  0  0  0
 17 18  1  0  0  0  0
 17 28  1  0  0  0  0
 18 29  1  0  0  0  0
 19 30  1  0  0  0  0
 19 31  1  0  0  0  0
 19 32  1  0  0  0  0
M  END
>  <Mol_ID>
4946

>  <Formula>
C16H13NO2

>  <MolWeight>
251.27992

>  <Cat>
S6809

>  <Name>
SU5214

>  <Synonyms>
N/A

>  <Target>
EGFR,VEGFR

>  <Form>
Free Base

>  <CAS>
186611-04-1

>  <URL>
http://www.selleckchem.com/products/su-5214.html

$$$$
