Succimer
 OpenBabel08302520393D

 16 15  0  0  0  0  0  0  0  0999 V2000
    0.9188    0.0345   -0.0392 C   0  0  1  0  0  0  0  0  0  0  0  0
    0.4422   -0.3166   -1.4593 C   0  0  2  0  0  0  0  0  0  0  0  0
    0.2706    1.3481    0.3758 C   0  0  0  0  0  0  0  0  0  0  0  0
    0.4272   -1.1977    1.2462 S   0  0  0  0  0  0  0  0  0  0  0  0
    1.0350   -1.6230   -1.9806 C   0  0  0  0  0  0  0  0  0  0  0  0
    0.9188    0.9916   -2.6925 S   0  0  0  0  0  0  0  0  0  0  0  0
    1.1372    2.3401    0.6670 O   0  0  0  0  0  0  0  0  0  0  0  0
   -0.9413    1.5239    0.3896 O   0  0  0  0  0  0  0  0  0  0  0  0
    0.5743   -1.9680   -3.2098 O   0  0  0  0  0  0  0  0  0  0  0  0
    1.8467   -2.3171   -1.3890 O   0  0  0  0  0  0  0  0  0  0  0  0
    2.0106    0.1119   -0.0016 H   0  0  0  0  0  0  0  0  0  0  0  0
   -0.6502   -0.4079   -1.4829 H   0  0  0  0  0  0  0  0  0  0  0  0
   -0.8971   -0.9816    1.1772 H   0  0  0  0  0  0  0  0  0  0  0  0
    0.2315    2.0099   -2.1465 H   0  0  0  0  0  0  0  0  0  0  0  0
    2.0847    2.1021    0.6421 H   0  0  0  0  0  0  0  0  0  0  0  0
    0.0403   -1.2592   -3.6276 H   0  0  0  0  0  0  0  0  0  0  0  0
  1  4  1  0  0  0  0
  1 11  1  1  0  0  0
  1  3  1  0  0  0  0
  1  2  1  0  0  0  0
  2 12  1  1  0  0  0
  2  6  1  0  0  0  0
  2  5  1  0  0  0  0
  3  7  1  0  0  0  0
  3  8  2  0  0  0  0
  4 13  1  0  0  0  0
  5  9  1  0  0  0  0
  5 10  2  0  0  0  0
  6 14  1  0  0  0  0
  7 15  1  0  0  0  0
  9 16  1  0  0  0  0
M  END
>  <Mol_ID>
3699

>  <Formula>
C4H6O4S2

>  <MolWeight>
182.21804

>  <Cat>
S4692

>  <Name>
Succimer

>  <Synonyms>
DMSA, meso-2,3-dimercaptosuccinic acid

>  <Target>
Others

>  <Form>
Free Base

>  <CAS>
304-55-2

>  <URL>
http://www.selleck.cn/products/succimer.html

$$$$
