Sulcatone
 OpenBabel08302521363D

 23 22  0  0  0  0  0  0  0  0999 V2000
    1.1269   -0.0448   -0.0199 C   0  0  0  0  0  0  0  0  0  0  0  0
    0.5023   -1.2884    0.5678 C   0  0  0  0  0  0  0  0  0  0  0  0
    0.7193    1.2132    0.7598 C   0  0  0  0  0  0  0  0  0  0  0  0
    1.0069   -2.5370    0.5600 C   0  0  0  0  0  0  0  0  0  0  0  0
    1.2987    2.4858    0.1714 C   0  0  0  0  0  0  0  0  0  0  0  0
    0.2457   -3.6779    1.1879 C   0  0  0  0  0  0  0  0  0  0  0  0
    2.3083   -2.9227   -0.0854 C   0  0  0  0  0  0  0  0  0  0  0  0
    0.9437    3.7826    0.8537 C   0  0  0  0  0  0  0  0  0  0  0  0
    2.0522    2.4819   -0.8029 O   0  0  0  0  0  0  0  0  0  0  0  0
    0.7893    0.0539   -1.0588 H   0  0  0  0  0  0  0  0  0  0  0  0
    2.2199   -0.1271   -0.0386 H   0  0  0  0  0  0  0  0  0  0  0  0
   -0.4747   -1.1365    1.0284 H   0  0  0  0  0  0  0  0  0  0  0  0
   -0.3713    1.3197    0.7464 H   0  0  0  0  0  0  0  0  0  0  0  0
    1.0510    1.1416    1.8007 H   0  0  0  0  0  0  0  0  0  0  0  0
    0.0063   -4.4338    0.4329 H   0  0  0  0  0  0  0  0  0  0  0  0
    0.8461   -4.1465    1.9742 H   0  0  0  0  0  0  0  0  0  0  0  0
   -0.6967   -3.3498    1.6398 H   0  0  0  0  0  0  0  0  0  0  0  0
    2.3102   -2.6581   -1.1477 H   0  0  0  0  0  0  0  0  0  0  0  0
    3.1534   -2.4392    0.4133 H   0  0  0  0  0  0  0  0  0  0  0  0
    2.4722   -4.0050   -0.0256 H   0  0  0  0  0  0  0  0  0  0  0  0
    1.8005    4.1359    1.4328 H   0  0  0  0  0  0  0  0  0  0  0  0
    0.6696    4.5266    0.0994 H   0  0  0  0  0  0  0  0  0  0  0  0
    0.0907    3.6431    1.5215 H   0  0  0  0  0  0  0  0  0  0  0  0
  1  2  1  0  0  0  0
  1  3  1  0  0  0  0
  1 10  1  0  0  0  0
  1 11  1  0  0  0  0
  2  4  2  0  0  0  0
  2 12  1  0  0  0  0
  3  5  1  0  0  0  0
  3 13  1  0  0  0  0
  3 14  1  0  0  0  0
  4  6  1  0  0  0  0
  4  7  1  0  0  0  0
  5  8  1  0  0  0  0
  5  9  2  0  0  0  0
  6 15  1  0  0  0  0
  6 16  1  0  0  0  0
  6 17  1  0  0  0  0
  7 18  1  0  0  0  0
  7 19  1  0  0  0  0
  7 20  1  0  0  0  0
  8 21  1  0  0  0  0
  8 22  1  0  0  0  0
  8 23  1  0  0  0  0
M  END
>  <Mol_ID>
7171

>  <Formula>
C8H14O

>  <MolWeight>
126.19616

>  <Cat>
E4168

>  <Name>
Sulcatone

>  <Synonyms>
Sulcatone

>  <Target>
Endogenous Metabolite

>  <Form>
free base

>  <CAS>
110-93-0

>  <URL>
https://www.selleckchem.com/products/sulcatone.html

$$$$
