Sulfamethazine.cdx
 OpenBabel08302521503D

 33 34  0  0  0  0  0  0  0  0999 V2000
   -1.1855   -2.6077    2.0594 C   0  0  0  0  0  0  0  0  0  0  0  0
    0.0832   -2.2502    1.5920 C   0  0  0  0  0  0  0  0  0  0  0  0
    0.2005   -1.1604    0.7228 C   0  0  0  0  0  0  0  0  0  0  0  0
   -0.9350   -0.5119    0.2327 C   0  0  0  0  0  0  0  0  0  0  0  0
   -2.1982   -0.9363    0.6467 C   0  0  0  0  0  0  0  0  0  0  0  0
   -2.3285   -1.9623    1.5830 C   0  0  0  0  0  0  0  0  0  0  0  0
    1.2277   -2.8187    2.1638 N   0  0  0  0  0  0  0  0  0  0  0  0
   -3.6478   -0.1006    0.0564 S   0  0  0  0  0  0  0  0  0  0  0  0
   -4.0397   -0.9636   -1.3220 N   0  0  0  0  0  0  0  0  0  0  0  0
   -4.9075   -2.0240   -1.0908 C   0  0  0  0  0  0  0  0  0  0  0  0
   -4.6852   -0.2149    1.0593 O   0  0  0  0  0  0  0  0  0  0  0  0
   -3.2236    1.2058   -0.4090 O   0  0  0  0  0  0  0  0  0  0  0  0
   -6.1835   -1.7583   -1.3751 N   0  0  0  0  0  0  0  0  0  0  0  0
   -7.0584   -2.7374   -1.0816 C   0  0  0  0  0  0  0  0  0  0  0  0
   -6.6593   -3.9605   -0.5761 C   0  0  0  0  0  0  0  0  0  0  0  0
   -5.3052   -4.1311   -0.3505 C   0  0  0  0  0  0  0  0  0  0  0  0
   -4.4067   -3.1537   -0.5884 N   0  0  0  0  0  0  0  0  0  0  0  0
   -4.7855   -5.4425    0.1603 C   0  0  0  0  0  0  0  0  0  0  0  0
   -8.5096   -2.4493   -1.3246 C   0  0  0  0  0  0  0  0  0  0  0  0
   -1.2955   -3.3956    2.7994 H   0  0  0  0  0  0  0  0  0  0  0  0
    1.1825   -0.8069    0.4186 H   0  0  0  0  0  0  0  0  0  0  0  0
   -0.8237    0.3244   -0.4536 H   0  0  0  0  0  0  0  0  0  0  0  0
   -3.3088   -2.2646    1.9438 H   0  0  0  0  0  0  0  0  0  0  0  0
    2.0543   -2.7444    1.5792 H   0  0  0  0  0  0  0  0  0  0  0  0
    1.0840   -3.7631    2.5067 H   0  0  0  0  0  0  0  0  0  0  0  0
   -4.4021   -0.3319   -2.0271 H   0  0  0  0  0  0  0  0  0  0  0  0
   -7.3740   -4.7469   -0.3625 H   0  0  0  0  0  0  0  0  0  0  0  0
   -5.2806   -5.7100    1.0997 H   0  0  0  0  0  0  0  0  0  0  0  0
   -4.9699   -6.2304   -0.5773 H   0  0  0  0  0  0  0  0  0  0  0  0
   -3.7079   -5.3930    0.3447 H   0  0  0  0  0  0  0  0  0  0  0  0
   -8.8954   -3.0969   -2.1168 H   0  0  0  0  0  0  0  0  0  0  0  0
   -9.0869   -2.6120   -0.4089 H   0  0  0  0  0  0  0  0  0  0  0  0
   -8.6513   -1.4076   -1.6308 H   0  0  0  0  0  0  0  0  0  0  0  0
  1  2  2  0  0  0  0
  1 20  1  0  0  0  0
  2  3  1  0  0  0  0
  2  7  1  0  0  0  0
  3  4  2  0  0  0  0
  3 21  1  0  0  0  0
  4  5  1  0  0  0  0
  4 22  1  0  0  0  0
  5  6  2  0  0  0  0
  5  8  1  0  0  0  0
  6  1  1  0  0  0  0
  6 23  1  0  0  0  0
  7 24  1  0  0  0  0
  7 25  1  0  0  0  0
  8  9  1  0  0  0  0
  8 11  2  0  0  0  0
  8 12  2  0  0  0  0
  9 10  1  0  0  0  0
  9 26  1  0  0  0  0
 10 13  2  0  0  0  0
 13 14  1  0  0  0  0
 14 15  2  0  0  0  0
 14 19  1  0  0  0  0
 15 16  1  0  0  0  0
 15 27  1  0  0  0  0
 16 17  2  0  0  0  0
 16 18  1  0  0  0  0
 17 10  1  0  0  0  0
 18 28  1  0  0  0  0
 18 29  1  0  0  0  0
 18 30  1  0  0  0  0
 19 31  1  0  0  0  0
 19 32  1  0  0  0  0
 19 33  1  0  0  0  0
M  END
>  <Mol_ID>
982

>  <Formula>
C12H14N4O2S

>  <MolWeight>
278.33016

>  <Cat>
S3133

>  <Name>
Sulfamethazine

>  <Synonyms>
Sulfadimidine,Sulfadimerazine

>  <Target>
Bacterial

>  <Form>
free base

>  <CAS>
57-68-1

>  <URL>
http://selleckchem.com/products/sulfamethazine.html

$$$$
