Sulforaphane
 OpenBabel08302520343D

 21 20  0  0  0  0  0  0  0  0999 V2000
    0.4648   -2.2985    2.2219 C   0  0  0  0  0  0  0  0  0  0  0  0
    0.4218   -1.9377    0.4473 S   0  0  3  0  0  0  0  0  0  0  0  0
   -1.3609   -1.5760    0.3740 C   0  0  0  0  0  0  0  0  0  0  0  0
    1.1569   -0.6476    0.2347 O   0  0  0  0  0  0  0  0  0  0  0  0
   -1.8271   -1.1780   -1.0253 C   0  0  0  0  0  0  0  0  0  0  0  0
   -1.6354   -2.2218   -2.1348 C   0  0  0  0  0  0  0  0  0  0  0  0
   -2.3377   -3.5550   -1.8752 C   0  0  0  0  0  0  0  0  0  0  0  0
   -2.1442   -4.4134   -3.0545 N   0  0  0  0  0  0  0  0  0  0  0  0
   -2.6307   -5.4800   -2.9849 C   0  0  0  0  0  0  0  0  0  0  0  0
   -3.2824   -6.9284   -2.9054 S   0  0  0  0  0  0  0  0  0  0  0  0
   -0.2002   -3.1369    2.4423 H   0  0  0  0  0  0  0  0  0  0  0  0
    0.1573   -1.4168    2.7895 H   0  0  0  0  0  0  0  0  0  0  0  0
    1.4871   -2.5683    2.4981 H   0  0  0  0  0  0  0  0  0  0  0  0
   -1.9070   -2.4523    0.7349 H   0  0  0  0  0  0  0  0  0  0  0  0
   -1.5571   -0.7490    1.0651 H   0  0  0  0  0  0  0  0  0  0  0  0
   -2.8942   -0.9290   -0.9671 H   0  0  0  0  0  0  0  0  0  0  0  0
   -1.3150   -0.2575   -1.3307 H   0  0  0  0  0  0  0  0  0  0  0  0
   -2.0253   -1.7941   -3.0700 H   0  0  0  0  0  0  0  0  0  0  0  0
   -0.5685   -2.3938   -2.3124 H   0  0  0  0  0  0  0  0  0  0  0  0
   -1.9126   -4.0361   -0.9858 H   0  0  0  0  0  0  0  0  0  0  0  0
   -3.4073   -3.3814   -1.6989 H   0  0  0  0  0  0  0  0  0  0  0  0
  1  2  1  0  0  0  0
  1 11  1  0  0  0  0
  1 12  1  0  0  0  0
  1 13  1  0  0  0  0
  2  3  1  0  0  0  0
  2  4  2  0  0  0  0
  3  5  1  0  0  0  0
  3 14  1  0  0  0  0
  3 15  1  0  0  0  0
  5  6  1  0  0  0  0
  5 16  1  0  0  0  0
  5 17  1  0  0  0  0
  6  7  1  0  0  0  0
  6 18  1  0  0  0  0
  6 19  1  0  0  0  0
  7  8  1  0  0  0  0
  7 20  1  0  0  0  0
  7 21  1  0  0  0  0
  8  9  2  0  0  0  0
  9 10  2  0  0  0  0
M  END
>  <Mol_ID>
3411

>  <Formula>
C6H11NOS2

>  <MolWeight>
177.28764

>  <Cat>
S5771

>  <Name>
Sulforaphane

>  <Synonyms>
N/A

>  <Target>
HDAC,Heme Oxygenase,NF-¦ÊB,Nrf2,ROS

>  <Form>
Free Base

>  <CAS>
4478-93-7

>  <URL>
http://www.selleckchem.com/products/sulforaphane.html

$$$$
