Suplatast tosylate.cdx
 OpenBabel08302521423D

 66 66  0  0  0  0  0  0  0  0999 V2000
    2.5831    2.3090   -3.6351 C   0  0  0  0  0  0  0  0  0  0  0  0
    3.8772    2.1455   -4.1918 C   0  0  0  0  0  0  0  0  0  0  0  0
    5.0219    2.6140   -3.5141 C   0  0  0  0  0  0  0  0  0  0  0  0
    4.8639    3.0707   -2.2304 C   0  0  0  0  0  0  0  0  0  0  0  0
    3.5872    3.3194   -1.7507 C   0  0  0  0  0  0  0  0  0  0  0  0
    2.4288    2.9724   -2.4135 C   0  0  0  0  0  0  0  0  0  0  0  0
    1.1627    3.2024   -1.8199 N   0  0  0  0  0  0  0  0  0  0  0  0
    6.2322    2.6385   -4.1614 O   0  0  0  0  0  0  0  0  0  0  0  0
    7.2909    3.3777   -3.5087 C   0  0  0  0  0  0  0  0  0  0  0  0
    7.1765    4.9280   -3.4776 C   0  0  3  0  0  0  0  0  0  0  0  0
    8.2033    5.4679   -2.6192 O   0  0  0  0  0  0  0  0  0  0  0  0
    7.3591    5.5981   -4.8492 C   0  0  0  0  0  0  0  0  0  0  0  0
    6.3982    5.2426   -5.8360 O   0  0  0  0  0  0  0  0  0  0  0  0
    5.0827    5.6879   -5.5123 C   0  0  0  0  0  0  0  0  0  0  0  0
    4.1410    5.2447   -6.6088 C   0  0  0  0  0  0  0  0  0  0  0  0
    0.8742    4.1645   -0.8594 C   0  0  0  0  0  0  0  0  0  0  0  0
    1.8250    5.3320   -0.7804 C   0  0  0  0  0  0  0  0  0  0  0  0
    1.1375    6.6066   -0.3904 C   0  0  0  0  0  0  0  0  0  0  0  0
    2.2429    7.9777   -0.9045 S   0  3  0  0  0  0  0  0  0  0  0  0
   -0.1594    4.1370   -0.1887 O   0  0  0  0  0  0  0  0  0  0  0  0
    1.1426    9.2516   -0.3049 C   0  0  0  0  0  0  0  0  0  0  0  0
    3.3550    7.9022    0.5221 C   0  0  0  0  0  0  0  0  0  0  0  0
    1.2853   -0.8092    0.1352 C   0  0  0  0  0  0  0  0  0  0  0  0
    0.2232   -1.6019   -0.2518 C   0  0  0  0  0  0  0  0  0  0  0  0
   -1.0563   -1.0533   -0.3695 C   0  0  0  0  0  0  0  0  0  0  0  0
   -1.2554    0.2788   -0.0004 C   0  0  0  0  0  0  0  0  0  0  0  0
   -0.1851    1.0799    0.4446 C   0  0  0  0  0  0  0  0  0  0  0  0
    1.0958    0.5161    0.4859 C   0  0  0  0  0  0  0  0  0  0  0  0
   -2.1784   -1.9074   -0.8810 C   0  0  0  0  0  0  0  0  0  0  0  0
    2.6309    1.3634    0.9311 S   0  0  0  0  0  0  0  0  0  0  0  0
    3.0205    0.6838    2.1818 O   0  0  0  0  0  0  0  0  0  0  0  0
    3.5162    1.0491   -0.1728 O   0  0  0  0  0  0  0  0  0  0  0  0
    2.2762    2.7653    1.1175 O   0  5  0  0  0  0  0  0  0  0  0  0
    1.7091    1.9508   -4.1816 H   0  0  0  0  0  0  0  0  0  0  0  0
    3.9861    1.6376   -5.1444 H   0  0  0  0  0  0  0  0  0  0  0  0
    5.6796    3.2117   -1.5373 H   0  0  0  0  0  0  0  0  0  0  0  0
    3.5819    3.6519   -0.7226 H   0  0  0  0  0  0  0  0  0  0  0  0
    0.4756    2.4641   -1.9152 H   0  0  0  0  0  0  0  0  0  0  0  0
    7.4659    2.9952   -2.4939 H   0  0  0  0  0  0  0  0  0  0  0  0
    8.2145    3.1159   -4.0369 H   0  0  0  0  0  0  0  0  0  0  0  0
    6.2196    5.2453   -3.0527 H   0  0  0  0  0  0  0  0  0  0  0  0
    7.8128    5.5637   -1.7318 H   0  0  0  0  0  0  0  0  0  0  0  0
    7.3697    6.6915   -4.7341 H   0  0  0  0  0  0  0  0  0  0  0  0
    8.3517    5.3471   -5.2423 H   0  0  0  0  0  0  0  0  0  0  0  0
    4.7519    5.2466   -4.5712 H   0  0  0  0  0  0  0  0  0  0  0  0
    5.0698    6.7789   -5.4138 H   0  0  0  0  0  0  0  0  0  0  0  0
    4.3027    4.1917   -6.8610 H   0  0  0  0  0  0  0  0  0  0  0  0
    3.1019    5.3825   -6.2972 H   0  0  0  0  0  0  0  0  0  0  0  0
    4.3143    5.8268   -7.5193 H   0  0  0  0  0  0  0  0  0  0  0  0
    2.6160    5.1588   -0.0527 H   0  0  0  0  0  0  0  0  0  0  0  0
    2.2471    5.4788   -1.7825 H   0  0  0  0  0  0  0  0  0  0  0  0
    0.1905    6.7117   -0.9260 H   0  0  0  0  0  0  0  0  0  0  0  0
    0.9328    6.6392    0.6864 H   0  0  0  0  0  0  0  0  0  0  0  0
    0.8398    9.0551    0.7248 H   0  0  0  0  0  0  0  0  0  0  0  0
    1.6548   10.2104   -0.3792 H   0  0  0  0  0  0  0  0  0  0  0  0
    0.2616    9.2563   -0.9523 H   0  0  0  0  0  0  0  0  0  0  0  0
    2.8144    7.7049    1.4502 H   0  0  0  0  0  0  0  0  0  0  0  0
    4.0958    7.1119    0.3616 H   0  0  0  0  0  0  0  0  0  0  0  0
    3.8798    8.8566    0.6000 H   0  0  0  0  0  0  0  0  0  0  0  0
    2.2997   -1.2021    0.1460 H   0  0  0  0  0  0  0  0  0  0  0  0
    0.4258   -2.6477   -0.4596 H   0  0  0  0  0  0  0  0  0  0  0  0
   -2.2494    0.7153   -0.0505 H   0  0  0  0  0  0  0  0  0  0  0  0
   -0.3794    2.0990    0.7213 H   0  0  0  0  0  0  0  0  0  0  0  0
   -2.6588   -2.4606   -0.0640 H   0  0  0  0  0  0  0  0  0  0  0  0
   -2.9253   -1.2876   -1.3857 H   0  0  0  0  0  0  0  0  0  0  0  0
   -1.8057   -2.6310   -1.6221 H   0  0  0  0  0  0  0  0  0  0  0  0
  1  2  2  0  0  0  0
  1 34  1  0  0  0  0
  2  3  1  0  0  0  0
  2 35  1  0  0  0  0
  3  4  2  0  0  0  0
  3  8  1  0  0  0  0
  4  5  1  0  0  0  0
  4 36  1  0  0  0  0
  5  6  2  0  0  0  0
  5 37  1  0  0  0  0
  6  1  1  0  0  0  0
  6  7  1  0  0  0  0
  7 16  1  0  0  0  0
  7 38  1  0  0  0  0
  8  9  1  0  0  0  0
  9 10  1  0  0  0  0
  9 39  1  0  0  0  0
  9 40  1  0  0  0  0
 10 11  1  0  0  0  0
 10 12  1  0  0  0  0
 10 41  1  0  0  0  0
 11 42  1  0  0  0  0
 12 13  1  0  0  0  0
 12 43  1  0  0  0  0
 12 44  1  0  0  0  0
 13 14  1  0  0  0  0
 14 15  1  0  0  0  0
 14 45  1  0  0  0  0
 14 46  1  0  0  0  0
 15 47  1  0  0  0  0
 15 48  1  0  0  0  0
 15 49  1  0  0  0  0
 16 17  1  0  0  0  0
 16 20  2  0  0  0  0
 17 18  1  0  0  0  0
 17 50  1  0  0  0  0
 17 51  1  0  0  0  0
 18 19  1  0  0  0  0
 18 52  1  0  0  0  0
 18 53  1  0  0  0  0
 19 21  1  0  0  0  0
 19 22  1  0  0  0  0
 21 54  1  0  0  0  0
 21 55  1  0  0  0  0
 21 56  1  0  0  0  0
 22 57  1  0  0  0  0
 22 58  1  0  0  0  0
 22 59  1  0  0  0  0
 23 24  2  0  0  0  0
 23 60  1  0  0  0  0
 24 25  1  0  0  0  0
 24 61  1  0  0  0  0
 25 26  2  0  0  0  0
 25 29  1  0  0  0  0
 26 27  1  0  0  0  0
 26 62  1  0  0  0  0
 27 28  2  0  0  0  0
 27 63  1  0  0  0  0
 28 23  1  0  0  0  0
 28 30  1  0  0  0  0
 29 64  1  0  0  0  0
 29 65  1  0  0  0  0
 29 66  1  0  0  0  0
 30 31  2  0  0  0  0
 30 32  2  0  0  0  0
 30 33  1  0  0  0  0
M  CHG  2  19   1  33  -1
M  END
>  <Mol_ID>
849

>  <Formula>
C23H33NO7S2

>  <MolWeight>
499.64062

>  <Cat>
S2015

>  <Name>
Suplatast Tosylate

>  <Synonyms>
IPD-1151T, Suplatast Tosilate

>  <Target>
Interleukins

>  <Form>
Tosylate

>  <CAS>
94055-76-2

>  <URL>
http://selleckchem.com/products/suplatast-tosilate.html

$$$$
