T-26c
 OpenBabel08302521273D

 55 58  0  0  0  0  0  0  0  0999 V2000
   -2.2466   -0.4409    0.0778 S   0  0  0  0  0  0  0  0  0  0  0  0
    0.3800    3.4066   -1.1327 O   0  0  0  0  0  0  0  0  0  0  0  0
    2.2283    1.5515    0.5443 O   0  0  0  0  0  0  0  0  0  0  0  0
    3.3712   -3.0224   -0.1129 O   0  0  0  0  0  0  0  0  0  0  0  0
    2.1672   -7.2031   -4.8669 O   0  0  0  0  0  0  0  0  0  0  0  0
    5.0213    4.9591   -6.2261 O   0  0  0  0  0  0  0  0  0  0  0  0
    4.9964    7.1142   -5.5637 O   0  0  0  0  0  0  0  0  0  0  0  0
    2.0835   -0.6811    0.1186 N   0  0  0  0  0  0  0  0  0  0  0  0
    0.0253   -1.8698    0.0785 N   0  0  0  0  0  0  0  0  0  0  0  0
    1.4240   -4.2785   -0.0559 N   0  0  0  0  0  0  0  0  0  0  0  0
    0.0927    0.5860    0.1920 C   0  0  0  0  0  0  0  0  0  0  0  0
   -0.8059    1.7090    0.1071 C   0  0  0  0  0  0  0  0  0  0  0  0
   -0.3891    3.1511    0.0474 C   0  0  0  0  0  0  0  0  0  0  0  0
   -0.5531   -0.6350    0.1225 C   0  0  0  0  0  0  0  0  0  0  0  0
    1.5403    0.5691    0.2898 C   0  0  0  0  0  0  0  0  0  0  0  0
   -2.1160    1.2659    0.0621 C   0  0  0  0  0  0  0  0  0  0  0  0
    1.3254   -1.8333    0.0523 C   0  0  0  0  0  0  0  0  0  0  0  0
    0.8513    4.7549   -1.1640 C   0  0  0  0  0  0  0  0  0  0  0  0
    2.0216   -5.5939   -0.1412 C   0  0  0  0  0  0  0  0  0  0  0  0
    1.7476    5.0007   -2.3588 C   0  0  0  0  0  0  0  0  0  0  0  0
    2.1530   -3.1173   -0.0499 C   0  0  0  0  0  0  0  0  0  0  0  0
    1.4547   -6.3696   -1.3038 C   0  0  0  0  0  0  0  0  0  0  0  0
    1.7700    6.2645   -2.9680 C   0  0  0  0  0  0  0  0  0  0  0  0
    2.6562    4.0275   -2.8012 C   0  0  0  0  0  0  0  0  0  0  0  0
    2.1432   -6.4179   -2.5296 C   0  0  0  0  0  0  0  0  0  0  0  0
    0.2149   -7.0158   -1.1936 C   0  0  0  0  0  0  0  0  0  0  0  0
    1.5986   -7.0896   -3.6277 C   0  0  0  0  0  0  0  0  0  0  0  0
    2.6845    6.5485   -3.9880 C   0  0  0  0  0  0  0  0  0  0  0  0
    3.5774    4.3090   -3.8193 C   0  0  0  0  0  0  0  0  0  0  0  0
    3.5933    5.5756   -4.4148 C   0  0  0  0  0  0  0  0  0  0  0  0
   -0.3318   -7.6846   -2.2883 C   0  0  0  0  0  0  0  0  0  0  0  0
    0.3571   -7.7155   -3.5002 C   0  0  0  0  0  0  0  0  0  0  0  0
    4.6049    5.9691   -5.4384 C   0  0  0  0  0  0  0  0  0  0  0  0
    3.4287   -6.5755   -5.0560 C   0  0  0  0  0  0  0  0  0  0  0  0
    4.5066    4.1353   -6.1501 H   0  0  0  0  0  0  0  0  0  0  0  0
    3.0922   -0.7645    0.1485 H   0  0  0  0  0  0  0  0  0  0  0  0
    0.4136   -4.1939   -0.0088 H   0  0  0  0  0  0  0  0  0  0  0  0
   -1.2778    3.7944    0.0264 H   0  0  0  0  0  0  0  0  0  0  0  0
    0.1894    3.4046    0.9439 H   0  0  0  0  0  0  0  0  0  0  0  0
   -3.0162    1.8653    0.0016 H   0  0  0  0  0  0  0  0  0  0  0  0
   -0.0157    5.4255   -1.2040 H   0  0  0  0  0  0  0  0  0  0  0  0
    1.4281    4.9728   -0.2560 H   0  0  0  0  0  0  0  0  0  0  0  0
    3.1125   -5.5222   -0.2184 H   0  0  0  0  0  0  0  0  0  0  0  0
    1.8037   -6.1184    0.7962 H   0  0  0  0  0  0  0  0  0  0  0  0
    1.0945    7.0505   -2.6366 H   0  0  0  0  0  0  0  0  0  0  0  0
    2.6687    3.0478   -2.3235 H   0  0  0  0  0  0  0  0  0  0  0  0
    3.1044   -5.9179   -2.6009 H   0  0  0  0  0  0  0  0  0  0  0  0
   -0.3353   -6.9989   -0.2554 H   0  0  0  0  0  0  0  0  0  0  0  0
    2.7032    7.5429   -4.4309 H   0  0  0  0  0  0  0  0  0  0  0  0
    4.3006    3.5440   -4.0887 H   0  0  0  0  0  0  0  0  0  0  0  0
   -1.2969   -8.1776   -2.2031 H   0  0  0  0  0  0  0  0  0  0  0  0
   -0.0768   -8.2296   -4.3546 H   0  0  0  0  0  0  0  0  0  0  0  0
    3.3532   -5.4915   -4.9214 H   0  0  0  0  0  0  0  0  0  0  0  0
    4.1869   -7.0058   -4.3935 H   0  0  0  0  0  0  0  0  0  0  0  0
    3.7440   -6.7619   -6.0872 H   0  0  0  0  0  0  0  0  0  0  0  0
  1 14  1  0  0  0  0
  1 16  1  0  0  0  0
  2 13  1  0  0  0  0
  2 18  1  0  0  0  0
  3 15  2  0  0  0  0
  4 21  2  0  0  0  0
  5 27  1  0  0  0  0
  5 34  1  0  0  0  0
  6 33  1  0  0  0  0
  6 35  1  0  0  0  0
  7 33  2  0  0  0  0
  8 15  1  0  0  0  0
  8 17  1  0  0  0  0
  8 36  1  0  0  0  0
  9 14  1  0  0  0  0
  9 17  2  0  0  0  0
 10 19  1  0  0  0  0
 10 21  1  0  0  0  0
 10 37  1  0  0  0  0
 11 12  1  0  0  0  0
 11 14  2  0  0  0  0
 11 15  1  0  0  0  0
 12 13  1  0  0  0  0
 12 16  2  0  0  0  0
 13 38  1  0  0  0  0
 13 39  1  0  0  0  0
 16 40  1  0  0  0  0
 17 21  1  0  0  0  0
 18 20  1  0  0  0  0
 18 41  1  0  0  0  0
 18 42  1  0  0  0  0
 19 22  1  0  0  0  0
 19 43  1  0  0  0  0
 19 44  1  0  0  0  0
 20 23  2  0  0  0  0
 20 24  1  0  0  0  0
 22 25  2  0  0  0  0
 22 26  1  0  0  0  0
 23 28  1  0  0  0  0
 23 45  1  0  0  0  0
 24 29  2  0  0  0  0
 24 46  1  0  0  0  0
 25 27  1  0  0  0  0
 25 47  1  0  0  0  0
 26 31  2  0  0  0  0
 26 48  1  0  0  0  0
 27 32  2  0  0  0  0
 28 30  2  0  0  0  0
 28 49  1  0  0  0  0
 29 30  1  0  0  0  0
 29 50  1  0  0  0  0
 30 33  1  0  0  0  0
 31 32  1  0  0  0  0
 31 51  1  0  0  0  0
 32 52  1  0  0  0  0
 34 53  1  0  0  0  0
 34 54  1  0  0  0  0
 34 55  1  0  0  0  0
M  END
>  <Mol_ID>
5369

>  <Formula>
C24H21N3O6S

>  <MolWeight>
479.50504

>  <Cat>
S0341

>  <Name>
T-26c

>  <Synonyms>
N/A

>  <Target>
MMP

>  <Form>
Free Base

>  <CAS>
869296-13-9

>  <URL>
https://www.selleckchem.com/products/t-26c.html

$$$$
