T0070907.cdx
 OpenBabel08302521593D

 27 28  0  0  0  0  0  0  0  0999 V2000
    1.0088    0.0352    0.1167 C   0  0  0  0  0  0  0  0  0  0  0  0
    0.1831    0.8886    1.0209 C   0  0  0  0  0  0  0  0  0  0  0  0
    0.6264    2.1242    1.5137 C   0  0  0  0  0  0  0  0  0  0  0  0
   -0.2108    2.9031    2.3217 C   0  0  0  0  0  0  0  0  0  0  0  0
   -1.5013    2.4675    2.6252 C   0  0  0  0  0  0  0  0  0  0  0  0
   -1.9567    1.2462    2.1132 C   0  0  0  0  0  0  0  0  0  0  0  0
   -1.1183    0.4510    1.3239 C   0  0  0  0  0  0  0  0  0  0  0  0
    0.4077   -0.7469   -0.6139 O   0  0  0  0  0  0  0  0  0  0  0  0
    2.3855    0.1810    0.1940 N   0  0  0  0  0  0  0  0  0  0  0  0
    4.0442   -2.1073   -2.2219 C   0  0  0  0  0  0  0  0  0  0  0  0
    3.0206   -1.4378   -1.5696 C   0  0  0  0  0  0  0  0  0  0  0  0
    3.3461   -0.5230   -0.5725 C   0  0  0  0  0  0  0  0  0  0  0  0
    4.6951   -0.2913   -0.3016 C   0  0  0  0  0  0  0  0  0  0  0  0
    5.6484   -1.0062   -1.0118 C   0  0  0  0  0  0  0  0  0  0  0  0
    5.3534   -1.9148   -1.9623 N   0  0  0  0  0  0  0  0  0  0  0  0
   -3.3336    0.8118    2.3843 N   0  3  0  0  0  0  0  0  0  0  0  0
   -4.0523    1.5675    3.0529 O   0  0  0  0  0  0  0  0  0  0  0  0
   -3.6957   -0.2803    1.9269 O   0  5  0  0  0  0  0  0  0  0  0  0
    1.6018    2.5241    1.2509 H   0  0  0  0  0  0  0  0  0  0  0  0
    0.1363    3.8639    2.6970 H   0  0  0  0  0  0  0  0  0  0  0  0
   -2.1432    3.0954    3.2417 H   0  0  0  0  0  0  0  0  0  0  0  0
   -1.4701   -0.4995    0.9228 H   0  0  0  0  0  0  0  0  0  0  0  0
    2.7582    0.7822    0.9156 H   0  0  0  0  0  0  0  0  0  0  0  0
    3.8231   -2.8404   -2.9918 H   0  0  0  0  0  0  0  0  0  0  0  0
    2.0020   -1.6607   -1.8591 H   0  0  0  0  0  0  0  0  0  0  0  0
    5.0203    0.4231    0.4464 H   0  0  0  0  0  0  0  0  0  0  0  0
    6.7108   -0.8656   -0.8274 H   0  0  0  0  0  0  0  0  0  0  0  0
  1  2  1  0  0  0  0
  1  8  2  0  0  0  0
  1  9  1  0  0  0  0
  2  3  2  0  0  0  0
  2  7  1  0  0  0  0
  3  4  1  0  0  0  0
  3 19  1  0  0  0  0
  4  5  2  0  0  0  0
  4 20  1  0  0  0  0
  5  6  1  0  0  0  0
  5 21  1  0  0  0  0
  6  7  2  0  0  0  0
  6 16  1  0  0  0  0
  7 22  1  0  0  0  0
  9 12  1  0  0  0  0
  9 23  1  0  0  0  0
 10 11  2  0  0  0  0
 10 15  1  0  0  0  0
 10 24  1  0  0  0  0
 11 12  1  0  0  0  0
 11 25  1  0  0  0  0
 12 13  2  0  0  0  0
 13 14  1  0  0  0  0
 13 26  1  0  0  0  0
 14 15  2  0  0  0  0
 14 27  1  0  0  0  0
 16 17  2  0  0  0  0
 16 18  1  0  0  0  0
M  CHG  2  16   1  18  -1
M  END
>  <Mol_ID>
1028

>  <Formula>
C12H8ClN3O3

>  <MolWeight>
277.66322

>  <Cat>
S2871

>  <Name>
T0070907

>  <Synonyms>
N/A

>  <Target>
DNA-PK,PPAR,RAD51

>  <Form>
free base

>  <CAS>
313516-66-4

>  <URL>
http://selleckchem.com/products/t0070907.html

$$$$
