T1-44
 OpenBabel08302521373D

 73 77  0  0  0  0  0  0  0  0999 V2000
    0.8641    0.0708   -0.4943 N   0  0  0  0  0  0  0  0  0  0  0  0
   -4.2601   -2.7808    3.6459 O   0  0  0  0  0  0  0  0  0  0  0  0
   -1.9769   -0.1235    0.0956 N   0  0  0  0  0  0  0  0  0  0  0  0
   -6.1368   -1.6244    4.2282 N   0  0  0  0  0  0  0  0  0  0  0  0
   -6.3910   -2.1159    9.3095 N   0  0  0  0  0  0  0  0  0  0  0  0
   -4.1798    0.7377    0.1505 N   0  0  0  0  0  0  0  0  0  0  0  0
   -6.8688   -0.5144    6.7330 O   0  0  0  0  0  0  0  0  0  0  0  0
   -6.4224    1.5986    0.1644 N   0  0  0  0  0  0  0  0  0  0  0  0
   -5.0600   -1.8804    3.4065 C   0  0  0  0  0  0  0  0  0  0  0  0
   -6.1371    2.8172   -0.5337 C   0  0  0  0  0  0  0  0  0  0  0  0
   -3.2692   -0.1672    0.5792 C   0  0  0  0  0  0  0  0  0  0  0  0
   -7.3071   -0.9722    9.4733 C   0  0  0  0  0  0  0  0  0  0  0  0
   -5.4239    0.7331    0.6755 C   0  0  0  0  0  0  0  0  0  0  0  0
   -6.4671   -2.6659    7.9309 C   0  0  0  0  0  0  0  0  0  0  0  0
   -1.5084    1.0384   -0.6686 C   0  0  0  0  0  0  0  0  0  0  0  0
   -6.4245   -2.4452    5.4042 C   0  0  0  0  0  0  0  0  0  0  0  0
    0.2809   -1.0291    0.3064 C   0  0  0  0  0  0  0  0  0  0  0  0
   -6.5903   -3.1767   10.3308 C   0  0  0  0  0  0  0  0  0  0  0  0
   -6.1016   -1.7290    6.7340 C   0  0  3  0  0  0  0  0  0  0  0  0
   -1.1709   -1.3306   -0.1190 C   0  0  0  0  0  0  0  0  0  0  0  0
    0.0058    1.2788   -0.3793 C   0  0  0  0  0  0  0  0  0  0  0  0
   -4.8497   -1.0016    2.2148 C   0  0  0  0  0  0  0  0  0  0  0  0
   -3.6036   -1.0630    1.5902 C   0  0  0  0  0  0  0  0  0  0  0  0
   -7.7352   -0.6705   10.8858 C   0  0  0  0  0  0  0  0  0  0  0  0
   -5.7941   -0.1165    1.7152 C   0  0  0  0  0  0  0  0  0  0  0  0
   -7.4315    3.4719   -1.0842 C   0  0  0  0  0  0  0  0  0  0  0  0
   -7.8820   -3.1229   11.1720 C   0  0  0  0  0  0  0  0  0  0  0  0
   -8.0778   -1.7403   11.7258 C   0  0  0  0  0  0  0  0  0  0  0  0
   -8.6139   -1.4894   12.9910 C   0  0  0  0  0  0  0  0  0  0  0  0
   -8.7890   -0.1716   13.4220 C   0  0  0  0  0  0  0  0  0  0  0  0
   -5.6802    2.6623   -1.9994 C   0  0  0  0  0  0  0  0  0  0  0  0
   -6.6294    3.8304   -2.3495 C   0  0  0  0  0  0  0  0  0  0  0  0
   -7.9227    0.6445   11.3235 C   0  0  0  0  0  0  0  0  0  0  0  0
   -8.4409    0.8974   12.5930 C   0  0  0  0  0  0  0  0  0  0  0  0
    2.2261    0.3525   -0.0414 C   0  0  0  0  0  0  0  0  0  0  0  0
   -6.7110   -0.8017    4.1071 H   0  0  0  0  0  0  0  0  0  0  0  0
   -6.2528    0.1873    7.0119 H   0  0  0  0  0  0  0  0  0  0  0  0
   -7.1086    1.0207   -0.3171 H   0  0  0  0  0  0  0  0  0  0  0  0
   -5.5258    3.5057    0.0620 H   0  0  0  0  0  0  0  0  0  0  0  0
   -6.8004   -0.0816    9.0911 H   0  0  0  0  0  0  0  0  0  0  0  0
   -8.2311   -1.1278    8.9012 H   0  0  0  0  0  0  0  0  0  0  0  0
   -7.4697   -3.0772    7.7757 H   0  0  0  0  0  0  0  0  0  0  0  0
   -5.7642   -3.5147    7.8732 H   0  0  0  0  0  0  0  0  0  0  0  0
   -1.6633    0.8688   -1.7411 H   0  0  0  0  0  0  0  0  0  0  0  0
   -2.0445    1.9535   -0.3899 H   0  0  0  0  0  0  0  0  0  0  0  0
   -7.5001   -2.6477    5.3550 H   0  0  0  0  0  0  0  0  0  0  0  0
   -5.8902   -3.3964    5.3418 H   0  0  0  0  0  0  0  0  0  0  0  0
    0.8803   -1.9380    0.1794 H   0  0  0  0  0  0  0  0  0  0  0  0
    0.2927   -0.7710    1.3750 H   0  0  0  0  0  0  0  0  0  0  0  0
   -6.5014   -4.1810    9.8974 H   0  0  0  0  0  0  0  0  0  0  0  0
   -5.7445   -3.0915   11.0267 H   0  0  0  0  0  0  0  0  0  0  0  0
   -5.0386   -1.4617    6.7747 H   0  0  0  0  0  0  0  0  0  0  0  0
   -1.1974   -1.6076   -1.1816 H   0  0  0  0  0  0  0  0  0  0  0  0
   -1.5246   -2.2040    0.4356 H   0  0  0  0  0  0  0  0  0  0  0  0
    0.0935    1.6947    0.6337 H   0  0  0  0  0  0  0  0  0  0  0  0
    0.3706    2.0429   -1.0765 H   0  0  0  0  0  0  0  0  0  0  0  0
   -2.8692   -1.7678    1.9639 H   0  0  0  0  0  0  0  0  0  0  0  0
   -6.7920   -0.0436    2.1272 H   0  0  0  0  0  0  0  0  0  0  0  0
   -8.2625    2.7839   -1.2834 H   0  0  0  0  0  0  0  0  0  0  0  0
   -7.8124    4.3246   -0.5150 H   0  0  0  0  0  0  0  0  0  0  0  0
   -8.7483   -3.3865   10.5559 H   0  0  0  0  0  0  0  0  0  0  0  0
   -7.8152   -3.8534   11.9873 H   0  0  0  0  0  0  0  0  0  0  0  0
   -8.8972   -2.3053   13.6473 H   0  0  0  0  0  0  0  0  0  0  0  0
   -9.2078    0.0276   14.4060 H   0  0  0  0  0  0  0  0  0  0  0  0
   -4.6213    2.8668   -2.1822 H   0  0  0  0  0  0  0  0  0  0  0  0
   -5.9514    1.7173   -2.4818 H   0  0  0  0  0  0  0  0  0  0  0  0
   -7.1701    3.7371   -3.2953 H   0  0  0  0  0  0  0  0  0  0  0  0
   -6.1596    4.8197   -2.3039 H   0  0  0  0  0  0  0  0  0  0  0  0
   -7.6780    1.4803   10.6714 H   0  0  0  0  0  0  0  0  0  0  0  0
   -8.5870    1.9191   12.9274 H   0  0  0  0  0  0  0  0  0  0  0  0
    2.6793    1.1450   -0.6461 H   0  0  0  0  0  0  0  0  0  0  0  0
    2.2616    0.6574    1.0111 H   0  0  0  0  0  0  0  0  0  0  0  0
    2.8589   -0.5348   -0.1592 H   0  0  0  0  0  0  0  0  0  0  0  0
  1 17  1  0  0  0  0
  1 21  1  0  0  0  0
  2  9  2  0  0  0  0
  3 11  1  0  0  0  0
  4 16  1  0  0  0  0
  4 36  1  0  0  0  0
  5 12  1  0  0  0  0
  6 13  2  0  0  0  0
  7 19  1  0  0  0  0
  7 37  1  0  0  0  0
  8 10  1  0  0  0  0
  8 38  1  0  0  0  0
  9  4  1  0  0  0  0
 10 26  1  0  0  0  0
 10 31  1  0  0  0  0
 10 39  1  0  0  0  0
 11  6  1  0  0  0  0
 11 23  2  0  0  0  0
 12 40  1  0  0  0  0
 12 41  1  0  0  0  0
 13  8  1  0  0  0  0
 13 25  1  0  0  0  0
 14  5  1  0  0  0  0
 14 42  1  0  0  0  0
 14 43  1  0  0  0  0
 15  3  1  0  0  0  0
 15 44  1  0  0  0  0
 15 45  1  0  0  0  0
 16 46  1  0  0  0  0
 16 47  1  0  0  0  0
 17 48  1  0  0  0  0
 17 49  1  0  0  0  0
 18  5  1  0  0  0  0
 18 27  1  0  0  0  0
 18 50  1  0  0  0  0
 18 51  1  0  0  0  0
 19 14  1  0  0  0  0
 19 16  1  0  0  0  0
 19 52  1  0  0  0  0
 20  3  1  0  0  0  0
 20 17  1  0  0  0  0
 20 53  1  0  0  0  0
 20 54  1  0  0  0  0
 21 15  1  0  0  0  0
 21 55  1  0  0  0  0
 21 56  1  0  0  0  0
 22  9  1  0  0  0  0
 23 22  1  0  0  0  0
 23 57  1  0  0  0  0
 24 28  2  0  0  0  0
 24 12  1  0  0  0  0
 24 33  1  0  0  0  0
 25 22  2  0  0  0  0
 25 58  1  0  0  0  0
 26 32  1  0  0  0  0
 26 59  1  0  0  0  0
 26 60  1  0  0  0  0
 27 28  1  0  0  0  0
 27 61  1  0  0  0  0
 27 62  1  0  0  0  0
 28 29  1  0  0  0  0
 29 30  2  0  0  0  0
 29 63  1  0  0  0  0
 30 64  1  0  0  0  0
 31 32  1  0  0  0  0
 31 65  1  0  0  0  0
 31 66  1  0  0  0  0
 32 67  1  0  0  0  0
 32 68  1  0  0  0  0
 33 34  2  0  0  0  0
 33 69  1  0  0  0  0
 34 30  1  0  0  0  0
 34 70  1  0  0  0  0
 35  1  1  0  0  0  0
 35 71  1  0  0  0  0
 35 72  1  0  0  0  0
 35 73  1  0  0  0  0
M  END
>  <Mol_ID>
7543

>  <Formula>
C27H38N6O2

>  <MolWeight>
478.62962

>  <Cat>
E1429

>  <Name>
T1-44

>  <Target>
PRMT

>  <Form>
free base

>  <URL>
https://www.selleckchem.com/products/t1-44.html

$$$$
