T56-LIMKi
 OpenBabel08302520403D

 42 44  0  0  0  0  0  0  0  0999 V2000
    0.6212   -6.4662   -4.3560 F   0  0  0  0  0  0  0  0  0  0  0  0
   -0.4618   -4.7573   -5.1476 F   0  0  0  0  0  0  0  0  0  0  0  0
   -1.5360   -6.5639   -4.5940 F   0  0  0  0  0  0  0  0  0  0  0  0
    4.2532   -3.5680    7.2662 O   0  0  0  0  0  0  0  0  0  0  0  0
    2.6169   -6.3681   -0.5630 O   0  0  0  0  0  0  0  0  0  0  0  0
    1.5627   -3.8891    4.9660 O   0  0  0  0  0  0  0  0  0  0  0  0
    0.9016   -5.2845    0.5748 N   0  0  0  0  0  0  0  0  0  0  0  0
    3.4557   -5.1846    5.2375 N   0  0  0  0  0  0  0  0  0  0  0  0
    4.5626   -2.5363    8.1387 N   0  0  0  0  0  0  0  0  0  0  0  0
    2.7760   -6.3648    1.7509 C   0  0  0  0  0  0  0  0  0  0  0  0
    0.0318   -4.9720   -0.5010 C   0  0  0  0  0  0  0  0  0  0  0  0
    3.4272   -5.9614    4.0590 C   0  0  0  0  0  0  0  0  0  0  0  0
    2.6732   -5.6136    2.9283 C   0  0  0  0  0  0  0  0  0  0  0  0
   -0.7251   -5.1911   -2.8169 C   0  0  0  0  0  0  0  0  0  0  0  0
    2.0838   -5.9990    0.4814 C   0  0  0  0  0  0  0  0  0  0  0  0
    0.1953   -5.4779   -1.7944 C   0  0  0  0  0  0  0  0  0  0  0  0
    3.6259   -7.4797    1.7168 C   0  0  0  0  0  0  0  0  0  0  0  0
    4.2676   -7.0812    4.0057 C   0  0  0  0  0  0  0  0  0  0  0  0
   -1.0674   -4.1454   -0.2396 C   0  0  0  0  0  0  0  0  0  0  0  0
    4.3594   -7.8435    2.8417 C   0  0  0  0  0  0  0  0  0  0  0  0
   -1.8336   -4.3871   -2.5241 C   0  0  0  0  0  0  0  0  0  0  0  0
   -1.9958   -3.8573   -1.2439 C   0  0  0  0  0  0  0  0  0  0  0  0
   -0.5213   -5.7411   -4.2061 C   0  0  0  0  0  0  0  0  0  0  0  0
    2.6168   -4.1303    5.5529 C   0  0  0  0  0  0  0  0  0  0  0  0
    3.0849   -3.2848    6.6252 C   0  0  0  0  0  0  0  0  0  0  0  0
    2.5832   -2.1023    7.1184 C   0  0  0  0  0  0  0  0  0  0  0  0
    3.5768   -1.6399    8.0048 C   0  0  0  0  0  0  0  0  0  0  0  0
    3.6442   -0.3306    8.6930 C   0  0  0  0  0  0  0  0  0  0  0  0
    0.5895   -4.9869    1.4898 H   0  0  0  0  0  0  0  0  0  0  0  0
    4.2029   -5.3791    5.8978 H   0  0  0  0  0  0  0  0  0  0  0  0
    2.0665   -4.7170    2.9315 H   0  0  0  0  0  0  0  0  0  0  0  0
    1.0299   -6.1278   -2.0406 H   0  0  0  0  0  0  0  0  0  0  0  0
    3.7301   -8.0601    0.8002 H   0  0  0  0  0  0  0  0  0  0  0  0
    4.8644   -7.3745    4.8656 H   0  0  0  0  0  0  0  0  0  0  0  0
   -1.2149   -3.7075    0.7446 H   0  0  0  0  0  0  0  0  0  0  0  0
    5.0172   -8.7089    2.8002 H   0  0  0  0  0  0  0  0  0  0  0  0
   -2.5694   -4.1697   -3.2967 H   0  0  0  0  0  0  0  0  0  0  0  0
   -2.8498   -3.2169   -1.0298 H   0  0  0  0  0  0  0  0  0  0  0  0
    1.6760   -1.6087    6.8017 H   0  0  0  0  0  0  0  0  0  0  0  0
    3.5540   -0.4466    9.7763 H   0  0  0  0  0  0  0  0  0  0  0  0
    4.5950    0.1664    8.4712 H   0  0  0  0  0  0  0  0  0  0  0  0
    2.8409    0.3310    8.3506 H   0  0  0  0  0  0  0  0  0  0  0  0
  1 23  1  0  0  0  0
  2 23  1  0  0  0  0
  3 23  1  0  0  0  0
  4  9  1  0  0  0  0
  4 25  1  0  0  0  0
  5 15  2  0  0  0  0
  6 24  2  0  0  0  0
  7 11  1  0  0  0  0
  7 15  1  0  0  0  0
  7 29  1  0  0  0  0
  8 12  1  0  0  0  0
  8 24  1  0  0  0  0
  8 30  1  0  0  0  0
  9 27  2  0  0  0  0
 10 13  2  0  0  0  0
 10 15  1  0  0  0  0
 10 17  1  0  0  0  0
 11 16  1  0  0  0  0
 11 19  2  0  0  0  0
 12 13  1  0  0  0  0
 12 18  2  0  0  0  0
 13 31  1  0  0  0  0
 14 16  2  0  0  0  0
 14 21  1  0  0  0  0
 14 23  1  0  0  0  0
 16 32  1  0  0  0  0
 17 20  2  0  0  0  0
 17 33  1  0  0  0  0
 18 20  1  0  0  0  0
 18 34  1  0  0  0  0
 19 22  1  0  0  0  0
 19 35  1  0  0  0  0
 20 36  1  0  0  0  0
 21 22  2  0  0  0  0
 21 37  1  0  0  0  0
 22 38  1  0  0  0  0
 24 25  1  0  0  0  0
 25 26  2  0  0  0  0
 26 27  1  0  0  0  0
 26 39  1  0  0  0  0
 27 28  1  0  0  0  0
 28 40  1  0  0  0  0
 28 41  1  0  0  0  0
 28 42  1  0  0  0  0
M  END
>  <Mol_ID>
3801

>  <Formula>
C19H14F3N3O3

>  <MolWeight>
389.3279696

>  <Cat>
S6498

>  <Name>
T56-LIMKi

>  <Synonyms>
N/A

>  <Target>
LIM kinase

>  <Form>
free base

>  <CAS>
924473-59-6

>  <URL>
http://www.selleck.cn/products/t56-limki.html

$$$$
