TAK-117 (INK-1117,MLN-1117 ).cdx
 OpenBabel08302520433D

 44 48  0  0  0  0  0  0  0  0999 V2000
   -0.2424    0.7057    0.0174 N   0  0  0  0  0  0  0  0  0  0  0  0
   -0.3092   -0.6888    0.0485 C   0  0  0  0  0  0  0  0  0  0  0  0
    0.9103   -1.4122    0.0595 C   0  0  0  0  0  0  0  0  0  0  0  0
    2.0788   -0.7519    0.0288 C   0  0  0  0  0  0  0  0  0  0  0  0
    2.1410    0.7098    0.0033 C   0  0  0  0  0  0  0  0  0  0  0  0
    0.9773    1.4001    0.0073 C   0  0  0  0  0  0  0  0  0  0  0  0
   -1.5579    1.1567    0.0046 C   0  0  0  0  0  0  0  0  0  0  0  0
   -2.3100   -0.0068   -0.0596 C   0  0  0  0  0  0  0  0  0  0  0  0
   -1.5468   -1.1283    0.0330 N   0  0  0  0  0  0  0  0  0  0  0  0
    3.4310    1.4245   -0.0290 C   0  0  0  0  0  0  0  0  0  0  0  0
   -1.9952    2.5299   -0.0540 C   0  0  0  0  0  0  0  0  0  0  0  0
   -3.1661    2.8884    0.6181 N   0  0  0  0  0  0  0  0  0  0  0  0
   -1.3655    3.3658   -0.7018 O   0  0  0  0  0  0  0  0  0  0  0  0
   -3.9391    2.0799    1.5718 C   0  0  0  0  0  0  0  0  0  0  0  0
   -5.4230    2.0898    1.1828 C   0  0  0  0  0  0  0  0  0  0  0  0
   -5.9221    3.4351    1.1025 O   0  0  0  0  0  0  0  0  0  0  0  0
   -5.1822    4.2030    0.1367 C   0  0  0  0  0  0  0  0  0  0  0  0
   -3.6906    4.2521    0.4950 C   0  0  0  0  0  0  0  0  0  0  0  0
    4.0739    1.7524    1.1799 C   0  0  0  0  0  0  0  0  0  0  0  0
    5.3357    2.3544    1.1209 C   0  0  0  0  0  0  0  0  0  0  0  0
    5.9053    2.6081   -0.1173 C   0  0  0  0  0  0  0  0  0  0  0  0
    5.3109    2.3056   -1.3363 C   0  0  0  0  0  0  0  0  0  0  0  0
    4.0499    1.6951   -1.2636 C   0  0  0  0  0  0  0  0  0  0  0  0
    6.1909    2.7615    2.1147 N   0  0  0  0  0  0  0  0  0  0  0  0
    7.2309    3.2223    1.4532 C   0  0  0  0  0  0  0  0  0  0  0  0
    7.1251    3.1783    0.0969 O   0  0  0  0  0  0  0  0  0  0  0  0
    8.3622    3.7178    1.9471 N   0  0  0  0  0  0  0  0  0  0  0  0
    0.8623   -2.4952    0.0740 H   0  0  0  0  0  0  0  0  0  0  0  0
    3.0145   -1.3061    0.0166 H   0  0  0  0  0  0  0  0  0  0  0  0
    0.9322    2.4809   -0.0075 H   0  0  0  0  0  0  0  0  0  0  0  0
   -3.3841   -0.0905   -0.1560 H   0  0  0  0  0  0  0  0  0  0  0  0
   -3.8082    2.5500    2.5519 H   0  0  0  0  0  0  0  0  0  0  0  0
   -3.5786    1.0599    1.6752 H   0  0  0  0  0  0  0  0  0  0  0  0
   -5.5887    1.5927    0.2192 H   0  0  0  0  0  0  0  0  0  0  0  0
   -6.0100    1.5595    1.9389 H   0  0  0  0  0  0  0  0  0  0  0  0
   -5.6027    5.2131    0.1251 H   0  0  0  0  0  0  0  0  0  0  0  0
   -5.3326    3.7618   -0.8558 H   0  0  0  0  0  0  0  0  0  0  0  0
   -3.5618    4.7262    1.4757 H   0  0  0  0  0  0  0  0  0  0  0  0
   -3.1413    4.8422   -0.2428 H   0  0  0  0  0  0  0  0  0  0  0  0
    3.6257    1.5274    2.1410 H   0  0  0  0  0  0  0  0  0  0  0  0
    5.8020    2.5138   -2.2789 H   0  0  0  0  0  0  0  0  0  0  0  0
    3.5521    1.4135   -2.1920 H   0  0  0  0  0  0  0  0  0  0  0  0
    8.3624    3.9920    2.9225 H   0  0  0  0  0  0  0  0  0  0  0  0
    8.9448    4.2766    1.3385 H   0  0  0  0  0  0  0  0  0  0  0  0
  1  2  1  0  0  0  0
  1  7  1  0  0  0  0
  2  3  1  0  0  0  0
  3  4  2  0  0  0  0
  3 28  1  0  0  0  0
  4  5  1  0  0  0  0
  4 29  1  0  0  0  0
  5  6  2  0  0  0  0
  5 10  1  0  0  0  0
  6  1  1  0  0  0  0
  6 30  1  0  0  0  0
  7  8  2  0  0  0  0
  7 11  1  0  0  0  0
  8  9  1  0  0  0  0
  8 31  1  0  0  0  0
  9  2  2  0  0  0  0
 10 19  2  0  0  0  0
 11 12  1  0  0  0  0
 11 13  2  0  0  0  0
 12 14  1  0  0  0  0
 14 15  1  0  0  0  0
 14 32  1  0  0  0  0
 14 33  1  0  0  0  0
 15 16  1  0  0  0  0
 15 34  1  0  0  0  0
 15 35  1  0  0  0  0
 16 17  1  0  0  0  0
 17 18  1  0  0  0  0
 17 36  1  0  0  0  0
 17 37  1  0  0  0  0
 18 12  1  0  0  0  0
 18 38  1  0  0  0  0
 18 39  1  0  0  0  0
 19 20  1  0  0  0  0
 19 40  1  0  0  0  0
 20 21  2  0  0  0  0
 20 24  1  0  0  0  0
 21 22  1  0  0  0  0
 22 23  2  0  0  0  0
 22 41  1  0  0  0  0
 23 10  1  0  0  0  0
 23 42  1  0  0  0  0
 24 25  2  0  0  0  0
 25 26  1  0  0  0  0
 25 27  1  0  0  0  0
 26 21  1  0  0  0  0
 27 43  1  0  0  0  0
 27 44  1  0  0  0  0
M  END
>  <Mol_ID>
4146

>  <Formula>
C19H17N5O3

>  <MolWeight>
363.36998

>  <Cat>
S8581

>  <Name>
Serabelisib (TAK-117)

>  <Synonyms>
INK-1117, MLN-1117

>  <Target>
PI3K

>  <Form>
free base

>  <CAS>
1268454-23-4

>  <URL>
http://selleckchem.com/products/tak-117-ink-1117-mln-1117.html

$$$$
