TAK-063.cdx
 OpenBabel08302520433D

 49 53  0  0  0  0  0  0  0  0999 V2000
   -1.1140   -1.1353   -0.4705 C   0  0  0  0  0  0  0  0  0  0  0  0
   -1.8096    0.0742   -0.3754 C   0  0  0  0  0  0  0  0  0  0  0  0
   -1.1906    1.1975    0.1857 C   0  0  0  0  0  0  0  0  0  0  0  0
    0.1198    1.0821    0.6614 C   0  0  0  0  0  0  0  0  0  0  0  0
    0.7997   -0.1430    0.5735 C   0  0  0  0  0  0  0  0  0  0  0  0
    0.2109   -1.2776   -0.0128 C   0  0  0  0  0  0  0  0  0  0  0  0
    0.9483   -2.5059   -0.1129 N   0  0  0  0  0  0  0  0  0  0  0  0
    1.8775   -2.7067    0.8783 N   0  0  0  0  0  0  0  0  0  0  0  0
    2.4596   -3.8690    0.9559 C   0  0  0  0  0  0  0  0  0  0  0  0
    2.2146   -4.9730   -0.0659 C   0  0  0  0  0  0  0  0  0  0  0  0
    1.3030   -4.6439   -1.1937 C   0  0  0  0  0  0  0  0  0  0  0  0
    0.7311   -3.4402   -1.1046 C   0  0  0  0  0  0  0  0  0  0  0  0
    1.0071   -5.4729   -2.2617 O   0  0  0  0  0  0  0  0  0  0  0  0
    1.7232   -6.6955   -2.3373 C   0  0  0  0  0  0  0  0  0  0  0  0
    2.7394   -6.0692    0.0775 O   0  0  0  0  0  0  0  0  0  0  0  0
    3.3574   -4.1647    2.0550 C   0  0  0  0  0  0  0  0  0  0  0  0
   -1.7795   -2.1837   -0.9816 F   0  0  0  0  0  0  0  0  0  0  0  0
   -1.9060    2.4246    0.2741 N   0  0  0  0  0  0  0  0  0  0  0  0
   -1.4546    3.6402    0.7464 C   0  0  0  0  0  0  0  0  0  0  0  0
   -2.5068    4.5219    0.6752 C   0  0  0  0  0  0  0  0  0  0  0  0
   -3.5568    3.7690    0.1340 C   0  0  0  0  0  0  0  0  0  0  0  0
   -3.2027    2.5099   -0.1256 N   0  0  0  0  0  0  0  0  0  0  0  0
    3.2420   -3.6938    3.3593 N   0  0  0  0  0  0  0  0  0  0  0  0
    4.3481   -3.9939    4.0980 N   0  0  0  0  0  0  0  0  0  0  0  0
    5.0453   -4.8306    3.3353 C   0  0  0  0  0  0  0  0  0  0  0  0
    4.5014   -4.9482    2.0516 C   0  0  0  0  0  0  0  0  0  0  0  0
    2.1470   -3.0442    3.9943 C   0  0  0  0  0  0  0  0  0  0  0  0
    0.8284   -3.2765    3.5835 C   0  0  0  0  0  0  0  0  0  0  0  0
   -0.2266   -2.5983    4.1928 C   0  0  0  0  0  0  0  0  0  0  0  0
    0.0270   -1.7005    5.2270 C   0  0  0  0  0  0  0  0  0  0  0  0
    1.3338   -1.4968    5.6700 C   0  0  0  0  0  0  0  0  0  0  0  0
    2.3933   -2.1785    5.0682 C   0  0  0  0  0  0  0  0  0  0  0  0
   -2.8339    0.1128   -0.7424 H   0  0  0  0  0  0  0  0  0  0  0  0
    0.6464    1.9163    1.1153 H   0  0  0  0  0  0  0  0  0  0  0  0
    1.8169   -0.2006    0.9568 H   0  0  0  0  0  0  0  0  0  0  0  0
    0.0451   -3.1307   -1.8873 H   0  0  0  0  0  0  0  0  0  0  0  0
    2.8048   -6.5246   -2.3812 H   0  0  0  0  0  0  0  0  0  0  0  0
    1.4528   -7.3624   -1.5123 H   0  0  0  0  0  0  0  0  0  0  0  0
    1.4346   -7.1984   -3.2680 H   0  0  0  0  0  0  0  0  0  0  0  0
   -0.4427    3.7846    1.0908 H   0  0  0  0  0  0  0  0  0  0  0  0
   -2.5101    5.5612    0.9714 H   0  0  0  0  0  0  0  0  0  0  0  0
   -4.5688    4.0861   -0.0857 H   0  0  0  0  0  0  0  0  0  0  0  0
    5.9328   -5.3023    3.7389 H   0  0  0  0  0  0  0  0  0  0  0  0
    4.9055   -5.5159    1.2249 H   0  0  0  0  0  0  0  0  0  0  0  0
    0.5858   -3.9994    2.8105 H   0  0  0  0  0  0  0  0  0  0  0  0
   -1.2459   -2.7748    3.8586 H   0  0  0  0  0  0  0  0  0  0  0  0
   -0.7959   -1.1669    5.6944 H   0  0  0  0  0  0  0  0  0  0  0  0
    1.5295   -0.8015    6.4817 H   0  0  0  0  0  0  0  0  0  0  0  0
    3.4080   -1.9999    5.4191 H   0  0  0  0  0  0  0  0  0  0  0  0
  1  2  2  0  0  0  0
  1 17  1  0  0  0  0
  2  3  1  0  0  0  0
  2 33  1  0  0  0  0
  3  4  2  0  0  0  0
  3 18  1  0  0  0  0
  4  5  1  0  0  0  0
  4 34  1  0  0  0  0
  5  6  2  0  0  0  0
  5 35  1  0  0  0  0
  6  1  1  0  0  0  0
  6  7  1  0  0  0  0
  7  8  1  0  0  0  0
  8  9  2  0  0  0  0
  9 10  1  0  0  0  0
  9 16  1  0  0  0  0
 10 11  1  0  0  0  0
 10 15  2  0  0  0  0
 11 12  2  0  0  0  0
 11 13  1  0  0  0  0
 12  7  1  0  0  0  0
 12 36  1  0  0  0  0
 13 14  1  0  0  0  0
 14 37  1  0  0  0  0
 14 38  1  0  0  0  0
 14 39  1  0  0  0  0
 16 23  1  0  0  0  0
 18 19  1  0  0  0  0
 19 20  2  0  0  0  0
 19 40  1  0  0  0  0
 20 21  1  0  0  0  0
 20 41  1  0  0  0  0
 21 22  2  0  0  0  0
 21 42  1  0  0  0  0
 22 18  1  0  0  0  0
 23 24  1  0  0  0  0
 23 27  1  0  0  0  0
 24 25  2  0  0  0  0
 25 26  1  0  0  0  0
 25 43  1  0  0  0  0
 26 16  2  0  0  0  0
 26 44  1  0  0  0  0
 27 28  2  0  0  0  0
 28 29  1  0  0  0  0
 28 45  1  0  0  0  0
 29 30  2  0  0  0  0
 29 46  1  0  0  0  0
 30 31  1  0  0  0  0
 30 47  1  0  0  0  0
 31 32  2  0  0  0  0
 31 48  1  0  0  0  0
 32 27  1  0  0  0  0
 32 49  1  0  0  0  0
M  END
>  <Mol_ID>
4097

>  <Formula>
C23H17FN6O2

>  <MolWeight>
428.4184832

>  <Cat>
S8459

>  <Name>
TAK-063

>  <Synonyms>
Balipodect

>  <Target>
PDE

>  <Form>
free base

>  <CAS>
1238697-26-1

>  <URL>
http://selleckchem.com/products/tak-063.html

$$$$
