Takinib.cdx
 OpenBabel08302520433D

 42 44  0  0  0  0  0  0  0  0999 V2000
   -2.0753   -0.6966    0.0263 C   0  0  0  0  0  0  0  0  0  0  0  0
   -2.0566    0.6988    0.0432 C   0  0  0  0  0  0  0  0  0  0  0  0
   -0.8505    1.4117    0.0339 C   0  0  0  0  0  0  0  0  0  0  0  0
    0.3337    0.6629   -0.0066 C   0  0  0  0  0  0  0  0  0  0  0  0
    0.3343   -0.7269   -0.0392 C   0  0  0  0  0  0  0  0  0  0  0  0
   -0.8815   -1.4244   -0.0126 C   0  0  0  0  0  0  0  0  0  0  0  0
    1.6718    0.9973   -0.0300 N   0  0  0  0  0  0  0  0  0  0  0  0
    2.4068   -0.1731   -0.1291 C   0  0  0  0  0  0  0  0  0  0  0  0
    1.6090   -1.2138   -0.1108 N   0  0  0  0  0  0  0  0  0  0  0  0
    3.7804   -0.1887   -0.2474 N   0  0  0  0  0  0  0  0  0  0  0  0
    4.5047   -1.3626   -0.3425 C   0  0  0  0  0  0  0  0  0  0  0  0
    5.9697   -1.1714   -0.5630 C   0  0  0  0  0  0  0  0  0  0  0  0
    6.8553   -2.1170   -0.0234 C   0  0  0  0  0  0  0  0  0  0  0  0
    8.2351   -1.9638   -0.2005 C   0  0  0  0  0  0  0  0  0  0  0  0
    8.7242   -0.8620   -0.9155 C   0  0  0  0  0  0  0  0  0  0  0  0
    7.8442    0.0628   -1.4781 C   0  0  0  0  0  0  0  0  0  0  0  0
    6.4681   -0.0946   -1.3105 C   0  0  0  0  0  0  0  0  0  0  0  0
    9.2205   -2.9176    0.3738 C   0  0  0  0  0  0  0  0  0  0  0  0
    8.8062   -4.1981    0.6018 N   0  0  0  0  0  0  0  0  0  0  0  0
    2.1849    2.3540   -0.0230 C   0  0  0  0  0  0  0  0  0  0  0  0
    2.4271    2.9351    1.3721 C   0  0  0  0  0  0  0  0  0  0  0  0
    3.4767    2.1888    2.1826 C   0  0  0  0  0  0  0  0  0  0  0  0
    4.0979   -2.5134   -0.2404 O   0  0  0  0  0  0  0  0  0  0  0  0
   10.3726   -2.5769    0.6054 O   0  0  0  0  0  0  0  0  0  0  0  0
   -3.0238   -1.2280    0.0381 H   0  0  0  0  0  0  0  0  0  0  0  0
   -2.9989    1.2427    0.0632 H   0  0  0  0  0  0  0  0  0  0  0  0
   -0.8494    2.4958    0.0481 H   0  0  0  0  0  0  0  0  0  0  0  0
   -0.8812   -2.5085   -0.0317 H   0  0  0  0  0  0  0  0  0  0  0  0
    4.2743    0.6867   -0.2280 H   0  0  0  0  0  0  0  0  0  0  0  0
    6.4553   -2.9478    0.5533 H   0  0  0  0  0  0  0  0  0  0  0  0
    9.7977   -0.7323   -1.0472 H   0  0  0  0  0  0  0  0  0  0  0  0
    8.2345    0.8991   -2.0538 H   0  0  0  0  0  0  0  0  0  0  0  0
    5.8018    0.6150   -1.7928 H   0  0  0  0  0  0  0  0  0  0  0  0
    9.5123   -4.8547    0.9096 H   0  0  0  0  0  0  0  0  0  0  0  0
    7.9412   -4.5740    0.2404 H   0  0  0  0  0  0  0  0  0  0  0  0
    3.0995    2.3847   -0.6239 H   0  0  0  0  0  0  0  0  0  0  0  0
    1.4584    2.9814   -0.5529 H   0  0  0  0  0  0  0  0  0  0  0  0
    2.7568    3.9749    1.2566 H   0  0  0  0  0  0  0  0  0  0  0  0
    1.4897    2.9612    1.9398 H   0  0  0  0  0  0  0  0  0  0  0  0
    4.4109    2.0830    1.6229 H   0  0  0  0  0  0  0  0  0  0  0  0
    3.6997    2.7356    3.1045 H   0  0  0  0  0  0  0  0  0  0  0  0
    3.1235    1.1932    2.4679 H   0  0  0  0  0  0  0  0  0  0  0  0
  1  2  2  0  0  0  0
  1 25  1  0  0  0  0
  2  3  1  0  0  0  0
  2 26  1  0  0  0  0
  3  4  2  0  0  0  0
  3 27  1  0  0  0  0
  4  5  1  0  0  0  0
  4  7  1  0  0  0  0
  5  6  2  0  0  0  0
  6  1  1  0  0  0  0
  6 28  1  0  0  0  0
  7  8  1  0  0  0  0
  7 20  1  0  0  0  0
  8  9  2  0  0  0  0
  8 10  1  0  0  0  0
  9  5  1  0  0  0  0
 10 11  1  0  0  0  0
 10 29  1  0  0  0  0
 11 12  1  0  0  0  0
 11 23  2  0  0  0  0
 12 13  2  0  0  0  0
 13 14  1  0  0  0  0
 13 30  1  0  0  0  0
 14 15  2  0  0  0  0
 14 18  1  0  0  0  0
 15 16  1  0  0  0  0
 15 31  1  0  0  0  0
 16 17  2  0  0  0  0
 16 32  1  0  0  0  0
 17 12  1  0  0  0  0
 17 33  1  0  0  0  0
 18 19  1  0  0  0  0
 18 24  2  0  0  0  0
 19 34  1  0  0  0  0
 19 35  1  0  0  0  0
 20 21  1  0  0  0  0
 20 36  1  0  0  0  0
 20 37  1  0  0  0  0
 21 22  1  0  0  0  0
 21 38  1  0  0  0  0
 21 39  1  0  0  0  0
 22 40  1  0  0  0  0
 22 41  1  0  0  0  0
 22 42  1  0  0  0  0
M  END
>  <Mol_ID>
4186

>  <Formula>
C18H18N4O2

>  <MolWeight>
322.36112

>  <Cat>
S8663

>  <Name>
Takinib (EDHS-206)

>  <Synonyms>
EDHS-206

>  <Target>
Apoptosis related,IRAK,TAK1

>  <Form>
free base

>  <CAS>
1111556-37-6

>  <URL>
http://selleckchem.com/products/takinib.html

$$$$
