Tandospirone
 OpenBabel08302521343D

 57 61  0  0  0  0  0  0  0  0999 V2000
    1.9773   -2.4791   -1.0949 C   0  0  0  0  0  0  0  0  0  0  0  0
    2.3900   -1.7705   -2.1863 N   0  0  0  0  0  0  0  0  0  0  0  0
    2.9092   -2.5599   -3.1771 C   0  0  0  0  0  0  0  0  0  0  0  0
    2.8246   -4.0009   -2.7503 C   0  0  2  0  0  0  0  0  0  0  0  0
    1.8483   -4.8202   -3.6162 C   0  0  1  0  0  0  0  0  0  0  0  0
    1.8309   -6.2722   -3.0964 C   0  0  0  0  0  0  0  0  0  0  0  0
    1.0373   -6.1629   -1.7811 C   0  0  0  0  0  0  0  0  0  0  0  0
    0.7691   -4.6525   -1.6716 C   0  0  1  0  0  0  0  0  0  0  0  0
    2.1170   -3.9509   -1.3885 C   0  0  2  0  0  0  0  0  0  0  0  0
    0.4841   -4.3145   -3.1391 C   0  0  0  0  0  0  0  0  0  0  0  0
    1.5293   -2.0300   -0.0524 O   0  0  0  0  0  0  0  0  0  0  0  0
    3.3354   -2.1819   -4.2614 O   0  0  0  0  0  0  0  0  0  0  0  0
    2.2148   -0.3309   -2.3063 C   0  0  0  0  0  0  0  0  0  0  0  0
    3.3393    0.4697   -1.6521 C   0  0  0  0  0  0  0  0  0  0  0  0
    3.0943    1.9802   -1.7944 C   0  0  0  0  0  0  0  0  0  0  0  0
    4.1930    2.8058   -1.1007 C   0  0  0  0  0  0  0  0  0  0  0  0
    4.0935    4.2585   -1.3192 N   0  0  0  0  0  0  0  0  0  0  0  0
    5.1932    4.9858   -0.6236 C   0  0  0  0  0  0  0  0  0  0  0  0
    5.0552    5.1155    0.9212 C   0  0  0  0  0  0  0  0  0  0  0  0
    3.7382    5.6711    1.2632 N   0  0  0  0  0  0  0  0  0  0  0  0
    2.6087    4.9744    0.6314 C   0  0  0  0  0  0  0  0  0  0  0  0
    2.8135    4.8638   -0.8901 C   0  0  0  0  0  0  0  0  0  0  0  0
    3.5090    5.9165    2.6158 C   0  0  0  0  0  0  0  0  0  0  0  0
    4.5369    5.9869    3.4772 N   0  0  0  0  0  0  0  0  0  0  0  0
    4.2388    6.1418    4.7853 C   0  0  0  0  0  0  0  0  0  0  0  0
    2.9588    6.2265    5.2741 C   0  0  0  0  0  0  0  0  0  0  0  0
    1.9766    6.1943    4.3245 C   0  0  0  0  0  0  0  0  0  0  0  0
    2.2300    6.0520    3.0159 N   0  0  0  0  0  0  0  0  0  0  0  0
    3.8283   -4.4331   -2.6887 H   0  0  0  0  0  0  0  0  0  0  0  0
    2.0212   -4.7344   -4.6911 H   0  0  0  0  0  0  0  0  0  0  0  0
    1.3085   -6.9334   -3.7966 H   0  0  0  0  0  0  0  0  0  0  0  0
    2.8373   -6.6709   -2.9343 H   0  0  0  0  0  0  0  0  0  0  0  0
    0.0953   -6.7170   -1.8642 H   0  0  0  0  0  0  0  0  0  0  0  0
    1.5927   -6.5592   -0.9258 H   0  0  0  0  0  0  0  0  0  0  0  0
   -0.0332   -4.3902   -0.9791 H   0  0  0  0  0  0  0  0  0  0  0  0
    2.6979   -4.4363   -0.5978 H   0  0  0  0  0  0  0  0  0  0  0  0
    0.3127   -3.2502   -3.3229 H   0  0  0  0  0  0  0  0  0  0  0  0
   -0.3536   -4.8826   -3.5584 H   0  0  0  0  0  0  0  0  0  0  0  0
    2.1430   -0.0772   -3.3709 H   0  0  0  0  0  0  0  0  0  0  0  0
    1.2570   -0.0729   -1.8375 H   0  0  0  0  0  0  0  0  0  0  0  0
    3.4084    0.2084   -0.5886 H   0  0  0  0  0  0  0  0  0  0  0  0
    4.2999    0.2020   -2.1081 H   0  0  0  0  0  0  0  0  0  0  0  0
    3.0452    2.2432   -2.8580 H   0  0  0  0  0  0  0  0  0  0  0  0
    2.1168    2.2093   -1.3548 H   0  0  0  0  0  0  0  0  0  0  0  0
    4.2037    2.5595   -0.0336 H   0  0  0  0  0  0  0  0  0  0  0  0
    5.1548    2.4774   -1.5146 H   0  0  0  0  0  0  0  0  0  0  0  0
    6.1596    4.5323   -0.8733 H   0  0  0  0  0  0  0  0  0  0  0  0
    5.2281    5.9998   -1.0438 H   0  0  0  0  0  0  0  0  0  0  0  0
    5.1869    4.1313    1.3883 H   0  0  0  0  0  0  0  0  0  0  0  0
    5.8639    5.7670    1.2778 H   0  0  0  0  0  0  0  0  0  0  0  0
    2.4950    3.9724    1.0693 H   0  0  0  0  0  0  0  0  0  0  0  0
    1.6694    5.5193    0.7808 H   0  0  0  0  0  0  0  0  0  0  0  0
    2.7740    5.8780   -1.3086 H   0  0  0  0  0  0  0  0  0  0  0  0
    1.9583    4.3480   -1.3349 H   0  0  0  0  0  0  0  0  0  0  0  0
    5.0937    6.1835    5.4532 H   0  0  0  0  0  0  0  0  0  0  0  0
    2.7382    6.3134    6.3277 H   0  0  0  0  0  0  0  0  0  0  0  0
    0.9269    6.2684    4.5826 H   0  0  0  0  0  0  0  0  0  0  0  0
  1  2  1  0  0  0  0
  1 11  2  0  0  0  0
  2  3  1  0  0  0  0
  2 13  1  0  0  0  0
  3 12  2  0  0  0  0
  4  3  1  0  0  0  0
  4  5  1  0  0  0  0
  4  9  1  0  0  0  0
  4 29  1  1  0  0  0
  5  6  1  0  0  0  0
  5 10  1  0  0  0  0
  5 30  1  6  0  0  0
  6  7  1  0  0  0  0
  6 31  1  0  0  0  0
  6 32  1  0  0  0  0
  7 33  1  0  0  0  0
  7 34  1  0  0  0  0
  8  7  1  0  0  0  0
  8  9  1  0  0  0  0
  8 10  1  0  0  0  0
  8 35  1  1  0  0  0
  9  1  1  0  0  0  0
  9 36  1  1  0  0  0
 10 37  1  0  0  0  0
 10 38  1  0  0  0  0
 13 14  1  0  0  0  0
 13 39  1  0  0  0  0
 13 40  1  0  0  0  0
 14 15  1  0  0  0  0
 14 41  1  0  0  0  0
 14 42  1  0  0  0  0
 15 16  1  0  0  0  0
 15 43  1  0  0  0  0
 15 44  1  0  0  0  0
 16 17  1  0  0  0  0
 16 45  1  0  0  0  0
 16 46  1  0  0  0  0
 17 18  1  0  0  0  0
 17 22  1  0  0  0  0
 18 19  1  0  0  0  0
 18 47  1  0  0  0  0
 18 48  1  0  0  0  0
 19 20  1  0  0  0  0
 19 49  1  0  0  0  0
 19 50  1  0  0  0  0
 20 21  1  0  0  0  0
 20 23  1  0  0  0  0
 21 22  1  0  0  0  0
 21 51  1  0  0  0  0
 21 52  1  0  0  0  0
 22 53  1  0  0  0  0
 22 54  1  0  0  0  0
 23 24  2  0  0  0  0
 23 28  1  0  0  0  0
 24 25  1  0  0  0  0
 25 26  2  0  0  0  0
 25 55  1  0  0  0  0
 26 27  1  0  0  0  0
 26 56  1  0  0  0  0
 27 28  2  0  0  0  0
 27 57  1  0  0  0  0
M  END
>  <Mol_ID>
6439

>  <Formula>
C21H29N5O2

>  <MolWeight>
383.48726

>  <Cat>
E2356

>  <Name>
Tandospirone

>  <Synonyms>
SM-3997

>  <Target>
5-HT Receptor

>  <Form>
free base

>  <CAS>
87760-53-0

>  <URL>
http://www.selleckchem.com/products/tandospirone.html

$$$$
