Tazobactam Sodium
 OpenBabel08302521313D

 32 34  0  0  0  0  0  0  0  0999 V2000
    0.9545   -0.0561    0.0868 C   0  0  0  0  0  0  0  0  0  0  0  0
    2.5043    0.0117    0.0091 C   0  0  1  0  0  0  0  0  0  0  0  0
    0.4003   -1.3851    0.1899 N   0  0  0  0  0  0  0  0  0  0  0  0
    3.1185   -0.6071    1.2726 C   0  0  0  0  0  0  0  0  0  0  0  0
    3.0682   -0.5507   -1.3110 C   0  0  2  0  0  0  0  0  0  0  0  0
    2.9520    1.7877   -0.1080 S   0  0  0  0  0  0  0  0  0  0  0  0
   -0.0091   -2.2190   -0.8039 C   0  0  0  0  0  0  0  0  0  0  0  0
    0.1738   -1.9192    1.3994 N   0  0  0  0  0  0  0  0  0  0  0  0
    4.5507   -0.9354   -1.2380 C   0  0  0  0  0  0  0  0  0  0  0  0
    2.9548    0.4986   -2.3247 N   0  0  0  0  0  0  0  0  0  0  0  0
    1.8115    2.5813    0.3183 O   0  0  0  0  0  0  0  0  0  0  0  0
    4.2402    1.9870    0.5263 O   0  0  0  0  0  0  0  0  0  0  0  0
    3.1252    1.9121   -1.8990 C   0  0  1  0  0  0  0  0  0  0  0  0
   -0.5447   -3.2902   -0.1300 C   0  0  0  0  0  0  0  0  0  0  0  0
   -0.4159   -3.0915    1.2137 N   0  0  0  0  0  0  0  0  0  0  0  0
    4.7673   -2.2258   -0.8970 O   0  0  0  0  0  0  0  0  0  0  0  0
    5.4696   -0.1583   -1.4463 O   0  0  0  0  0  0  0  0  0  0  0  0
    1.7922    0.7340   -2.9924 C   0  0  0  0  0  0  0  0  0  0  0  0
    1.8778    2.2442   -2.7333 C   0  0  0  0  0  0  0  0  0  0  0  0
    0.9471   -0.0485   -3.3546 O   0  0  0  0  0  0  0  0  0  0  0  0
    0.5950    0.4936    0.9657 H   0  0  0  0  0  0  0  0  0  0  0  0
    0.4735    0.4193   -0.7722 H   0  0  0  0  0  0  0  0  0  0  0  0
    2.6501   -0.1983    2.1751 H   0  0  0  0  0  0  0  0  0  0  0  0
    2.9892   -1.6941    1.2872 H   0  0  0  0  0  0  0  0  0  0  0  0
    4.1917   -0.4078    1.3601 H   0  0  0  0  0  0  0  0  0  0  0  0
    2.5165   -1.4252   -1.6694 H   0  0  0  0  0  0  0  0  0  0  0  0
    0.0745   -1.9885   -1.8563 H   0  0  0  0  0  0  0  0  0  0  0  0
    4.0682    2.3556   -2.2285 H   0  0  0  0  0  0  0  0  0  0  0  0
   -1.0136   -4.1781   -0.5295 H   0  0  0  0  0  0  0  0  0  0  0  0
    3.9867   -2.7998   -0.7716 H   0  0  0  0  0  0  0  0  0  0  0  0
    1.0131    2.6330   -2.1891 H   0  0  0  0  0  0  0  0  0  0  0  0
    2.0526    2.8422   -3.6292 H   0  0  0  0  0  0  0  0  0  0  0  0
  1  3  1  0  0  0  0
  1 21  1  0  0  0  0
  1 22  1  0  0  0  0
  2  1  1  1  0  0  0
  2  4  1  0  0  0  0
  2  5  1  0  0  0  0
  2  6  1  0  0  0  0
  3  7  1  0  0  0  0
  3  8  1  0  0  0  0
  4 23  1  0  0  0  0
  4 24  1  0  0  0  0
  4 25  1  0  0  0  0
  5  9  1  0  0  0  0
  5 10  1  0  0  0  0
  5 26  1  6  0  0  0
  6 11  2  0  0  0  0
  6 12  2  0  0  0  0
  6 13  1  0  0  0  0
  7 14  2  0  0  0  0
  7 27  1  0  0  0  0
  8 15  2  0  0  0  0
  9 16  1  0  0  0  0
  9 17  2  0  0  0  0
 10 13  1  0  0  0  0
 10 18  1  0  0  0  0
 13 19  1  0  0  0  0
 13 28  1  6  0  0  0
 14 15  1  0  0  0  0
 14 29  1  0  0  0  0
 16 30  1  0  0  0  0
 18 19  1  0  0  0  0
 18 20  2  0  0  0  0
 19 31  1  0  0  0  0
 19 32  1  0  0  0  0
M  END
>  <Mol_ID>
5957

>  <Formula>
C10H12N4NaO5S

>  <MolWeight>
323.28085

>  <Cat>
E0167

>  <Name>
Tazobactam Sodium

>  <Synonyms>
Tazobactam acid Sodium, Tazobactamum Sodium

>  <Target>
Selection Antibiotics for Transfected Cell,¦Â-lactamase

>  <Form>
Sodium

>  <CAS>
89785-84-2

>  <URL>
http://www.selleckchem.com/products/tazobactam-sodium.html

$$$$
