TC-DAPK 6
 OpenBabel08302521333D

 33 35  0  0  0  0  0  0  0  0999 V2000
    0.6593    1.1298   -0.7311 N   0  0  0  0  0  0  0  0  0  0  0  0
   -0.5814    1.1792   -0.2009 C   0  0  0  0  0  0  0  0  0  0  0  0
   -1.1826    0.1166    0.4549 C   0  0  0  0  0  0  0  0  0  0  0  0
   -0.4728   -1.0761    0.5738 C   0  0  0  0  0  0  0  0  0  0  0  0
    0.8066   -1.1716    0.0267 C   0  0  0  0  0  0  0  0  0  0  0  0
    1.3249   -0.0424   -0.6021 C   0  0  0  0  0  0  0  0  0  0  0  0
    1.5624   -2.4187    0.0877 C   0  0  0  0  0  0  0  0  0  0  0  0
    2.4161   -2.7675    1.0582 C   0  0  0  0  0  0  0  0  0  0  0  0
    2.7528   -1.9845    2.2847 C   0  0  0  0  0  0  0  0  0  0  0  0
    3.6632   -2.7821    2.9097 O   0  0  0  0  0  0  0  0  0  0  0  0
    3.8133   -3.8753    2.1300 C   0  0  0  0  0  0  0  0  0  0  0  0
    3.1219   -3.9424    1.0439 N   0  0  0  0  0  0  0  0  0  0  0  0
    4.7652   -4.8329    2.6913 C   0  0  0  0  0  0  0  0  0  0  0  0
    5.0131   -5.9692    2.0252 C   0  0  0  0  0  0  0  0  0  0  0  0
    5.8937   -7.0400    2.5090 C   0  0  0  0  0  0  0  0  0  0  0  0
    6.0761   -7.2965    3.8743 C   0  0  0  0  0  0  0  0  0  0  0  0
    6.8415   -8.3852    4.2965 C   0  0  0  0  0  0  0  0  0  0  0  0
    7.4222   -9.2344    3.3586 C   0  0  0  0  0  0  0  0  0  0  0  0
    7.2501   -8.9898    1.9979 C   0  0  0  0  0  0  0  0  0  0  0  0
    6.4916   -7.8961    1.5749 C   0  0  0  0  0  0  0  0  0  0  0  0
    2.3384   -0.9165    2.6749 O   0  0  0  0  0  0  0  0  0  0  0  0
   -1.1015    2.1247   -0.3277 H   0  0  0  0  0  0  0  0  0  0  0  0
   -2.1843    0.2119    0.8581 H   0  0  0  0  0  0  0  0  0  0  0  0
   -0.9244   -1.9200    1.0876 H   0  0  0  0  0  0  0  0  0  0  0  0
    2.3174   -0.0478   -1.0450 H   0  0  0  0  0  0  0  0  0  0  0  0
    1.4057   -3.0976   -0.7467 H   0  0  0  0  0  0  0  0  0  0  0  0
    5.2239   -4.5855    3.6403 H   0  0  0  0  0  0  0  0  0  0  0  0
    4.5334   -6.1576    1.0652 H   0  0  0  0  0  0  0  0  0  0  0  0
    5.6052   -6.6724    4.6287 H   0  0  0  0  0  0  0  0  0  0  0  0
    6.9676   -8.5771    5.3587 H   0  0  0  0  0  0  0  0  0  0  0  0
    8.0013  -10.0926    3.6884 H   0  0  0  0  0  0  0  0  0  0  0  0
    7.6956   -9.6571    1.2647 H   0  0  0  0  0  0  0  0  0  0  0  0
    6.3658   -7.7254    0.5079 H   0  0  0  0  0  0  0  0  0  0  0  0
  1  2  2  0  0  0  0
  2  3  1  0  0  0  0
  2 22  1  0  0  0  0
  3  4  2  0  0  0  0
  3 23  1  0  0  0  0
  4  5  1  0  0  0  0
  4 24  1  0  0  0  0
  5  6  2  0  0  0  0
  5  7  1  0  0  0  0
  6  1  1  0  0  0  0
  6 25  1  0  0  0  0
  7  8  2  0  0  0  0
  7 26  1  0  0  0  0
  8  9  1  0  0  0  0
  9 10  1  0  0  0  0
  9 21  2  0  0  0  0
 10 11  1  0  0  0  0
 11 12  2  0  0  0  0
 11 13  1  0  0  0  0
 12  8  1  0  0  0  0
 13 14  2  0  0  0  0
 13 27  1  0  0  0  0
 14 15  1  0  0  0  0
 14 28  1  0  0  0  0
 15 16  2  0  0  0  0
 16 17  1  0  0  0  0
 16 29  1  0  0  0  0
 17 18  2  0  0  0  0
 17 30  1  0  0  0  0
 18 19  1  0  0  0  0
 18 31  1  0  0  0  0
 19 20  2  0  0  0  0
 19 32  1  0  0  0  0
 20 15  1  0  0  0  0
 20 33  1  0  0  0  0
M  END
>  <Mol_ID>
6400

>  <Formula>
C17H12N2O2

>  <MolWeight>
276.28938

>  <Cat>
E1120

>  <Name>
TC-DAPK 6

>  <Target>
DAPK,Serine/threonin kinase

>  <Form>
free base

>  <CAS>
315694-89-4

>  <URL>
http://www.selleckchem.com/products/tc-dapk-6.html

$$$$
