TC-E 5003
 OpenBabel08302521313D

 39 40  0  0  0  0  0  0  0  0999 V2000
    1.2266   -0.0711    0.4609 C   0  0  0  0  0  0  0  0  0  0  0  0
    0.3756   -1.1850    0.5288 C   0  0  0  0  0  0  0  0  0  0  0  0
   -0.9044   -1.1096   -0.0238 C   0  0  0  0  0  0  0  0  0  0  0  0
   -1.3334    0.0620   -0.6432 C   0  0  0  0  0  0  0  0  0  0  0  0
   -0.4813    1.1697   -0.6986 C   0  0  0  0  0  0  0  0  0  0  0  0
    0.8089    1.1128   -0.1651 C   0  0  0  0  0  0  0  0  0  0  0  0
    1.7314    2.1844   -0.2462 N   0  0  0  0  0  0  0  0  0  0  0  0
   -1.9666   -2.5387   -0.0403 S   0  0  0  0  0  0  0  0  0  0  0  0
    1.5228    3.4120   -0.8556 C   0  0  0  0  0  0  0  0  0  0  0  0
    0.4955    3.7994   -1.4018 O   0  0  0  0  0  0  0  0  0  0  0  0
    2.7351    4.3066   -0.8015 C   0  0  0  0  0  0  0  0  0  0  0  0
   -2.9746   -2.4504    1.4232 C   0  0  0  0  0  0  0  0  0  0  0  0
   -2.8501   -2.4125   -1.1826 O   0  0  0  0  0  0  0  0  0  0  0  0
   -1.1117   -3.7068    0.0961 O   0  0  0  0  0  0  0  0  0  0  0  0
   -4.1695   -1.7343    1.3890 C   0  0  0  0  0  0  0  0  0  0  0  0
   -4.9846   -1.6940    2.5249 C   0  0  0  0  0  0  0  0  0  0  0  0
   -4.6304   -2.3721    3.6947 C   0  0  0  0  0  0  0  0  0  0  0  0
   -3.4352   -3.1078    3.7060 C   0  0  0  0  0  0  0  0  0  0  0  0
   -2.6074   -3.1512    2.5739 C   0  0  0  0  0  0  0  0  0  0  0  0
   -5.4187   -2.3698    4.8701 N   0  0  0  0  0  0  0  0  0  0  0  0
   -6.6174   -1.6964    5.0574 C   0  0  0  0  0  0  0  0  0  0  0  0
   -7.1953   -0.9846    4.2421 O   0  0  0  0  0  0  0  0  0  0  0  0
   -7.2107   -1.9109    6.4248 C   0  0  0  0  0  0  0  0  0  0  0  0
    2.2234   -0.1547    0.8878 H   0  0  0  0  0  0  0  0  0  0  0  0
    0.7283   -2.1040    0.9930 H   0  0  0  0  0  0  0  0  0  0  0  0
   -2.3154    0.1286   -1.1063 H   0  0  0  0  0  0  0  0  0  0  0  0
   -0.8595    2.0602   -1.1890 H   0  0  0  0  0  0  0  0  0  0  0  0
    2.6473    2.0206    0.1510 H   0  0  0  0  0  0  0  0  0  0  0  0
    3.0075    4.5109    0.2369 H   0  0  0  0  0  0  0  0  0  0  0  0
    3.5713    3.8408   -1.3289 H   0  0  0  0  0  0  0  0  0  0  0  0
    2.5014    5.2571   -1.2930 H   0  0  0  0  0  0  0  0  0  0  0  0
   -4.4902   -1.2134    0.4889 H   0  0  0  0  0  0  0  0  0  0  0  0
   -5.9056   -1.1246    2.4514 H   0  0  0  0  0  0  0  0  0  0  0  0
   -3.1299   -3.6662    4.5885 H   0  0  0  0  0  0  0  0  0  0  0  0
   -1.6925   -3.7403    2.5965 H   0  0  0  0  0  0  0  0  0  0  0  0
   -5.0718   -2.9123    5.6499 H   0  0  0  0  0  0  0  0  0  0  0  0
   -7.4458   -2.9671    6.5753 H   0  0  0  0  0  0  0  0  0  0  0  0
   -6.5197   -1.5599    7.1951 H   0  0  0  0  0  0  0  0  0  0  0  0
   -8.1386   -1.3343    6.5043 H   0  0  0  0  0  0  0  0  0  0  0  0
  1  2  2  0  0  0  0
  1 24  1  0  0  0  0
  2  3  1  0  0  0  0
  2 25  1  0  0  0  0
  3  4  2  0  0  0  0
  3  8  1  0  0  0  0
  4  5  1  0  0  0  0
  4 26  1  0  0  0  0
  5  6  2  0  0  0  0
  5 27  1  0  0  0  0
  6  1  1  0  0  0  0
  6  7  1  0  0  0  0
  7  9  1  0  0  0  0
  7 28  1  0  0  0  0
  8 12  1  0  0  0  0
  8 13  2  0  0  0  0
  8 14  2  0  0  0  0
  9 10  2  0  0  0  0
  9 11  1  0  0  0  0
 11 29  1  0  0  0  0
 11 30  1  0  0  0  0
 11 31  1  0  0  0  0
 12 15  2  0  0  0  0
 15 16  1  0  0  0  0
 15 32  1  0  0  0  0
 16 17  2  0  0  0  0
 16 33  1  0  0  0  0
 17 18  1  0  0  0  0
 17 20  1  0  0  0  0
 18 19  2  0  0  0  0
 18 34  1  0  0  0  0
 19 12  1  0  0  0  0
 19 35  1  0  0  0  0
 20 21  1  0  0  0  0
 20 36  1  0  0  0  0
 21 22  2  0  0  0  0
 21 23  1  0  0  0  0
 23 37  1  0  0  0  0
 23 38  1  0  0  0  0
 23 39  1  0  0  0  0
M  END
>  <Mol_ID>
5856

>  <Formula>
C16H14Cl2N2O4S

>  <MolWeight>
401.26436

>  <Cat>
S0855

>  <Name>
TC-E 5003

>  <Synonyms>
NSC 30176

>  <Target>
AP-1,PRMT

>  <Form>
Free Base

>  <CAS>
17328-16-4

>  <URL>
http://www.selleckchem.com/products/tc-e-5003.html

$$$$
