TC-G-1008 (GPR39-C3)
 OpenBabel08302521243D

 47 49  0  0  0  0  0  0  0  0999 V2000
    4.7532    0.4752    3.4299 S   0  0  0  0  0  0  0  0  0  0  0  0
    5.9244   -0.0068    2.7227 O   0  0  0  0  0  0  0  0  0  0  0  0
    4.8810    1.4809    4.4727 O   0  0  0  0  0  0  0  0  0  0  0  0
    3.5067   -7.0628    2.4776 N   0  0  0  0  0  0  0  0  0  0  0  0
    3.9453   -0.8018    4.1650 N   0  0  0  0  0  0  0  0  0  0  0  0
    4.1093   -8.4171    0.6030 N   0  0  0  0  0  0  0  0  0  0  0  0
    3.5244  -10.6974    0.5018 N   0  0  0  0  0  0  0  0  0  0  0  0
    4.5265   -9.7126   -1.3174 N   0  0  0  0  0  0  0  0  0  0  0  0
    1.6984  -11.6970    3.4802 N   0  0  0  0  0  0  0  0  0  0  0  0
    4.0525   -4.6746    2.4394 C   0  0  0  0  0  0  0  0  0  0  0  0
    4.1242   -5.9949    1.7022 C   0  0  0  0  0  0  0  0  0  0  0  0
    4.0197   -2.1158    3.6132 C   0  0  0  0  0  0  0  0  0  0  0  0
    5.0635   -4.2853    3.3333 C   0  0  0  0  0  0  0  0  0  0  0  0
    2.9887   -3.7933    2.2039 C   0  0  0  0  0  0  0  0  0  0  0  0
    5.0489   -3.0068    3.9197 C   0  0  0  0  0  0  0  0  0  0  0  0
    2.9821   -2.5189    2.7749 C   0  0  0  0  0  0  0  0  0  0  0  0
    3.5149   -8.3049    1.8005 C   0  0  0  0  0  0  0  0  0  0  0  0
    2.9205   -9.3889    2.4053 C   0  0  0  0  0  0  0  0  0  0  0  0
    2.9460  -10.5910    1.7218 C   0  0  0  0  0  0  0  0  0  0  0  0
    4.0752   -9.5989   -0.0191 C   0  0  0  0  0  0  0  0  0  0  0  0
    2.2847  -11.8075    2.2545 C   0  0  0  0  0  0  0  0  0  0  0  0
    3.5739    1.1029    2.2471 C   0  0  0  0  0  0  0  0  0  0  0  0
    2.2109  -12.9955    1.5239 C   0  0  0  0  0  0  0  0  0  0  0  0
    1.4938  -14.0757    2.0359 C   0  0  0  0  0  0  0  0  0  0  0  0
    5.6084   -8.8704   -1.7654 C   0  0  0  0  0  0  0  0  0  0  0  0
    1.0193  -12.7640    3.9578 C   0  0  0  0  0  0  0  0  0  0  0  0
    0.8798  -13.9579    3.2743 C   0  0  0  0  0  0  0  0  0  0  0  0
    2.5527   -6.8357    2.7440 H   0  0  0  0  0  0  0  0  0  0  0  0
    4.0235   -0.7408    5.1781 H   0  0  0  0  0  0  0  0  0  0  0  0
    4.5567  -10.6861   -1.5851 H   0  0  0  0  0  0  0  0  0  0  0  0
    3.6279   -5.8744    0.7284 H   0  0  0  0  0  0  0  0  0  0  0  0
    5.1793   -6.2242    1.5015 H   0  0  0  0  0  0  0  0  0  0  0  0
    5.8777   -4.9738    3.5575 H   0  0  0  0  0  0  0  0  0  0  0  0
    2.1654   -4.0850    1.5565 H   0  0  0  0  0  0  0  0  0  0  0  0
    5.8489   -2.7332    4.6025 H   0  0  0  0  0  0  0  0  0  0  0  0
    2.1525   -1.8470    2.5802 H   0  0  0  0  0  0  0  0  0  0  0  0
    2.4427   -9.3007    3.3729 H   0  0  0  0  0  0  0  0  0  0  0  0
    3.8917    2.1099    1.9580 H   0  0  0  0  0  0  0  0  0  0  0  0
    3.5621    0.4622    1.3617 H   0  0  0  0  0  0  0  0  0  0  0  0
    2.5842    1.1628    2.7044 H   0  0  0  0  0  0  0  0  0  0  0  0
    2.6861  -13.0765    0.5506 H   0  0  0  0  0  0  0  0  0  0  0  0
    1.4075  -14.9943    1.4625 H   0  0  0  0  0  0  0  0  0  0  0  0
    6.5311   -9.4538   -1.8550 H   0  0  0  0  0  0  0  0  0  0  0  0
    5.3642   -8.4850   -2.7607 H   0  0  0  0  0  0  0  0  0  0  0  0
    5.8137   -8.0084   -1.1221 H   0  0  0  0  0  0  0  0  0  0  0  0
    0.5654  -12.6235    4.9348 H   0  0  0  0  0  0  0  0  0  0  0  0
    0.3040  -14.7744    3.6952 H   0  0  0  0  0  0  0  0  0  0  0  0
  1  2  2  0  0  0  0
  1  3  2  0  0  0  0
  1  5  1  0  0  0  0
  1 22  1  0  0  0  0
  4 11  1  0  0  0  0
  4 17  1  0  0  0  0
  4 28  1  0  0  0  0
  5 12  1  0  0  0  0
  5 29  1  0  0  0  0
  6 17  2  0  0  0  0
  6 20  1  0  0  0  0
  7 19  1  0  0  0  0
  7 20  2  0  0  0  0
  8 20  1  0  0  0  0
  8 25  1  0  0  0  0
  8 30  1  0  0  0  0
  9 21  2  0  0  0  0
  9 26  1  0  0  0  0
 10 11  1  0  0  0  0
 10 13  2  0  0  0  0
 10 14  1  0  0  0  0
 11 31  1  0  0  0  0
 11 32  1  0  0  0  0
 12 15  2  0  0  0  0
 12 16  1  0  0  0  0
 13 15  1  0  0  0  0
 13 33  1  0  0  0  0
 14 16  2  0  0  0  0
 14 34  1  0  0  0  0
 15 35  1  0  0  0  0
 16 36  1  0  0  0  0
 17 18  1  0  0  0  0
 18 19  2  0  0  0  0
 18 37  1  0  0  0  0
 19 21  1  0  0  0  0
 21 23  1  0  0  0  0
 22 38  1  0  0  0  0
 22 39  1  0  0  0  0
 22 40  1  0  0  0  0
 23 24  2  0  0  0  0
 23 41  1  0  0  0  0
 24 27  1  0  0  0  0
 24 42  1  0  0  0  0
 25 43  1  0  0  0  0
 25 44  1  0  0  0  0
 25 45  1  0  0  0  0
 26 27  2  0  0  0  0
 26 46  1  0  0  0  0
 27 47  1  0  0  0  0
M  END
>  <Mol_ID>
4920

>  <Formula>
C18H19ClN6O2S

>  <MolWeight>
418.90046

>  <Cat>
S6759

>  <Name>
TC-G-1008 (GPR39-C3)

>  <Synonyms>
N/A

>  <Target>
GPR

>  <Form>
Free Base

>  <CAS>
1621175-65-2

>  <URL>
http://www.selleckchem.com/products/gpr39-c3.html

$$$$
