TCPP
 OpenBabel08302521343D

 35 34  0  0  0  0  0  0  0  0999 V2000
    0.9728    0.0877   -0.0395 P   0  0  0  0  0  0  0  0  0  0  0  0
    0.9130    0.9072    1.4055 O   0  0  0  0  0  0  0  0  0  0  0  0
    0.8632    1.3028   -1.1564 O   0  0  0  0  0  0  0  0  0  0  0  0
   -0.7572    0.0877   -0.0395 O   0  0  0  0  0  0  0  0  0  0  0  0
    2.5212    0.0877   -0.0395 O   0  0  0  0  0  0  0  0  0  0  0  0
    1.4482    0.2235    2.5589 C   0  0  0  0  0  0  0  0  0  0  0  0
    0.8134    0.8953   -2.5302 C   0  0  0  0  0  0  0  0  0  0  0  0
   -1.4292   -1.1528    0.0474 C   0  0  0  0  0  0  0  0  0  0  0  0
    2.9697   -0.0052    2.5361 C   0  0  0  0  0  0  0  0  0  0  0  0
    1.1338    1.0493    3.8015 C   0  0  0  0  0  0  0  0  0  0  0  0
    0.8859    2.1363   -3.4057 C   0  0  0  0  0  0  0  0  0  0  0  0
    1.9338   -0.0753   -2.9169 C   0  0  0  0  0  0  0  0  0  0  0  0
   -2.9219   -0.8460    0.0159 C   0  0  0  0  0  0  0  0  0  0  0  0
   -1.0713   -2.0668   -1.1269 C   0  0  0  0  0  0  0  0  0  0  0  0
    0.9435   -0.7462    2.6412 H   0  0  0  0  0  0  0  0  0  0  0  0
   -0.1533    0.4105   -2.7045 H   0  0  0  0  0  0  0  0  0  0  0  0
   -1.1664   -1.6349    0.9953 H   0  0  0  0  0  0  0  0  0  0  0  0
    3.5053    0.8611    2.1303 H   0  0  0  0  0  0  0  0  0  0  0  0
    3.3711   -0.2200    3.5321 H   0  0  0  0  0  0  0  0  0  0  0  0
    3.2242   -0.8807    1.9279 H   0  0  0  0  0  0  0  0  0  0  0  0
    0.0635    1.2446    3.8836 H   0  0  0  0  0  0  0  0  0  0  0  0
    1.4689    0.5299    4.7051 H   0  0  0  0  0  0  0  0  0  0  0  0
    1.6413    2.0217    3.7564 H   0  0  0  0  0  0  0  0  0  0  0  0
    1.7558    2.7474   -3.1410 H   0  0  0  0  0  0  0  0  0  0  0  0
    0.9457    1.8755   -4.4688 H   0  0  0  0  0  0  0  0  0  0  0  0
   -0.0021    2.7585   -3.2585 H   0  0  0  0  0  0  0  0  0  0  0  0
    1.8048   -1.0424   -2.4198 H   0  0  0  0  0  0  0  0  0  0  0  0
    1.9481   -0.2631   -3.9955 H   0  0  0  0  0  0  0  0  0  0  0  0
    2.9141    0.3139   -2.6236 H   0  0  0  0  0  0  0  0  0  0  0  0
   -3.2159   -0.4329   -0.9568 H   0  0  0  0  0  0  0  0  0  0  0  0
   -3.5216   -1.7417    0.2044 H   0  0  0  0  0  0  0  0  0  0  0  0
   -3.1755   -0.0861    0.7633 H   0  0  0  0  0  0  0  0  0  0  0  0
   -0.0376   -2.4174   -1.0438 H   0  0  0  0  0  0  0  0  0  0  0  0
   -1.7258   -2.9436   -1.1645 H   0  0  0  0  0  0  0  0  0  0  0  0
   -1.1543   -1.5380   -2.0803 H   0  0  0  0  0  0  0  0  0  0  0  0
  1  2  1  0  0  0  0
  1  3  1  0  0  0  0
  1  4  1  0  0  0  0
  1  5  2  0  0  0  0
  2  6  1  0  0  0  0
  3  7  1  0  0  0  0
  4  8  1  0  0  0  0
  6  9  1  0  0  0  0
  6 10  1  0  0  0  0
  6 15  1  0  0  0  0
  7 11  1  0  0  0  0
  7 12  1  0  0  0  0
  7 16  1  0  0  0  0
  8 13  1  0  0  0  0
  8 14  1  0  0  0  0
  8 17  1  0  0  0  0
  9 18  1  0  0  0  0
  9 19  1  0  0  0  0
  9 20  1  0  0  0  0
 10 21  1  0  0  0  0
 10 22  1  0  0  0  0
 10 23  1  0  0  0  0
 11 24  1  0  0  0  0
 11 25  1  0  0  0  0
 11 26  1  0  0  0  0
 12 27  1  0  0  0  0
 12 28  1  0  0  0  0
 12 29  1  0  0  0  0
 13 30  1  0  0  0  0
 13 31  1  0  0  0  0
 13 32  1  0  0  0  0
 14 33  1  0  0  0  0
 14 34  1  0  0  0  0
 14 35  1  0  0  0  0
M  END
>  <Mol_ID>
6498

>  <Formula>
C9H18Cl3O4P

>  <MolWeight>
327.569581

>  <Cat>
E2697

>  <Name>
TCPP

>  <Synonyms>
Tris (clorisopropyl)phosphate

>  <Target>
Others

>  <Form>
free base

>  <CAS>
13674-84-5

>  <URL>
http://www.selleckchem.com/products/tcpp.html

$$$$
