TCS-OX2-29
 OpenBabel08302521233D

 60 62  0  0  0  0  0  0  0  0999 V2000
    3.1337   -0.0098   -1.4159 C   0  0  0  0  0  0  0  0  0  0  0  0
    2.4763    0.3300   -0.0236 C   0  0  2  0  0  0  0  0  0  0  0  0
    0.9060    0.0900   -0.0501 C   0  0  0  0  0  0  0  0  0  0  0  0
    0.1930    1.2108   -0.8224 C   0  0  0  0  0  0  0  0  0  0  0  0
    3.6309   -1.1467   -1.5460 O   0  0  0  0  0  0  0  0  0  0  0  0
    3.0047    1.6320    0.4573 N   0  0  0  0  0  0  0  0  0  0  0  0
    2.7396    1.9373    1.8520 C   0  0  0  0  0  0  0  0  0  0  0  0
    2.1635    5.6560    2.1828 C   0  0  0  0  0  0  0  0  0  0  0  0
    2.0050    4.3436    1.7732 C   0  0  0  0  0  0  0  0  0  0  0  0
    2.9601    3.3946    2.1607 C   0  0  0  0  0  0  0  0  0  0  0  0
    4.0565    3.8217    2.9081 C   0  0  0  0  0  0  0  0  0  0  0  0
    4.1300    5.1597    3.2641 C   0  0  0  0  0  0  0  0  0  0  0  0
    3.2048    6.0854    2.9248 N   0  0  0  0  0  0  0  0  0  0  0  0
    0.5743   -1.2654   -0.7234 C   0  0  0  0  0  0  0  0  0  0  0  0
    0.2541   -0.0337    1.3528 C   0  0  0  0  0  0  0  0  0  0  0  0
    3.6329    0.2912   -3.7580 C   0  0  0  0  0  0  0  0  0  0  0  0
    3.0872    0.8535   -2.5198 N   0  0  0  0  0  0  0  0  0  0  0  0
    3.1360    2.3175   -2.4302 C   0  0  0  0  0  0  0  0  0  0  0  0
    2.5222    3.0226   -3.6457 C   0  0  0  0  0  0  0  0  0  0  0  0
    2.9348    2.4199   -4.9601 C   0  0  0  0  0  0  0  0  0  0  0  0
    2.7236    3.1189   -6.1596 C   0  0  0  0  0  0  0  0  0  0  0  0
    3.0634    2.5618   -7.4012 C   0  0  0  0  0  0  0  0  0  0  0  0
    3.6200    1.2766   -7.4514 C   0  0  0  0  0  0  0  0  0  0  0  0
    3.7987    0.5684   -6.2509 C   0  0  0  0  0  0  0  0  0  0  0  0
    3.4484    1.1228   -5.0047 C   0  0  0  0  0  0  0  0  0  0  0  0
    3.8844    0.7154   -8.6720 O   0  0  0  0  0  0  0  0  0  0  0  0
    4.9577   -0.2192   -8.7205 C   0  0  0  0  0  0  0  0  0  0  0  0
    2.7599    3.3800   -8.4644 O   0  0  0  0  0  0  0  0  0  0  0  0
    3.5015    3.2000   -9.6640 C   0  0  0  0  0  0  0  0  0  0  0  0
    2.8973   -0.4295    0.6528 H   0  0  0  0  0  0  0  0  0  0  0  0
    0.4563    1.1910   -1.8847 H   0  0  0  0  0  0  0  0  0  0  0  0
   -0.8919    1.1104   -0.7567 H   0  0  0  0  0  0  0  0  0  0  0  0
    0.4551    2.1971   -0.4250 H   0  0  0  0  0  0  0  0  0  0  0  0
    4.0189    1.6236    0.3341 H   0  0  0  0  0  0  0  0  0  0  0  0
    1.7043    1.7813    2.1137 H   0  0  0  0  0  0  0  0  0  0  0  0
    3.3244    1.2938    2.5168 H   0  0  0  0  0  0  0  0  0  0  0  0
    1.4268    6.4131    1.9322 H   0  0  0  0  0  0  0  0  0  0  0  0
    1.1359    4.0571    1.1907 H   0  0  0  0  0  0  0  0  0  0  0  0
    4.8232    3.1280    3.2344 H   0  0  0  0  0  0  0  0  0  0  0  0
    4.9531    5.5312    3.8652 H   0  0  0  0  0  0  0  0  0  0  0  0
    1.0193   -2.0998   -0.1630 H   0  0  0  0  0  0  0  0  0  0  0  0
   -0.5109   -1.4345   -0.7460 H   0  0  0  0  0  0  0  0  0  0  0  0
    0.9190   -1.3203   -1.7565 H   0  0  0  0  0  0  0  0  0  0  0  0
    0.8347   -0.6958    2.0052 H   0  0  0  0  0  0  0  0  0  0  0  0
    0.0943    0.9213    1.8526 H   0  0  0  0  0  0  0  0  0  0  0  0
   -0.7562   -0.4577    1.2801 H   0  0  0  0  0  0  0  0  0  0  0  0
    4.7059    0.1205   -3.6041 H   0  0  0  0  0  0  0  0  0  0  0  0
    3.1477   -0.6805   -3.9203 H   0  0  0  0  0  0  0  0  0  0  0  0
    2.6154    2.6867   -1.5503 H   0  0  0  0  0  0  0  0  0  0  0  0
    4.1934    2.5916   -2.3258 H   0  0  0  0  0  0  0  0  0  0  0  0
    1.4283    2.9669   -3.5798 H   0  0  0  0  0  0  0  0  0  0  0  0
    2.8027    4.0821   -3.6165 H   0  0  0  0  0  0  0  0  0  0  0  0
    2.2828    4.1127   -6.1366 H   0  0  0  0  0  0  0  0  0  0  0  0
    4.1773   -0.4510   -6.2687 H   0  0  0  0  0  0  0  0  0  0  0  0
    5.8284    0.1312   -8.1559 H   0  0  0  0  0  0  0  0  0  0  0  0
    4.6301   -1.2021   -8.3697 H   0  0  0  0  0  0  0  0  0  0  0  0
    5.2598   -0.3226   -9.7669 H   0  0  0  0  0  0  0  0  0  0  0  0
    4.5736    3.0872   -9.4696 H   0  0  0  0  0  0  0  0  0  0  0  0
    3.1063    2.3653  -10.2511 H   0  0  0  0  0  0  0  0  0  0  0  0
    3.3745    4.1036  -10.2685 H   0  0  0  0  0  0  0  0  0  0  0  0
  1  5  2  0  0  0  0
  1 17  1  0  0  0  0
  2  6  1  0  0  0  0
  2 30  1  1  0  0  0
  2  3  1  0  0  0  0
  2  1  1  0  0  0  0
  3  4  1  0  0  0  0
  3 14  1  0  0  0  0
  3 15  1  0  0  0  0
  4 31  1  0  0  0  0
  4 32  1  0  0  0  0
  4 33  1  0  0  0  0
  6  7  1  0  0  0  0
  6 34  1  0  0  0  0
  7 10  1  0  0  0  0
  7 35  1  0  0  0  0
  7 36  1  0  0  0  0
  8  9  2  0  0  0  0
  8 13  1  0  0  0  0
  8 37  1  0  0  0  0
  9 10  1  0  0  0  0
  9 38  1  0  0  0  0
 10 11  2  0  0  0  0
 11 12  1  0  0  0  0
 11 39  1  0  0  0  0
 12 13  2  0  0  0  0
 12 40  1  0  0  0  0
 14 41  1  0  0  0  0
 14 42  1  0  0  0  0
 14 43  1  0  0  0  0
 15 44  1  0  0  0  0
 15 45  1  0  0  0  0
 15 46  1  0  0  0  0
 16 17  1  0  0  0  0
 16 25  1  0  0  0  0
 16 47  1  0  0  0  0
 16 48  1  0  0  0  0
 17 18  1  0  0  0  0
 18 19  1  0  0  0  0
 18 49  1  0  0  0  0
 18 50  1  0  0  0  0
 19 20  1  0  0  0  0
 19 51  1  0  0  0  0
 19 52  1  0  0  0  0
 20 21  1  0  0  0  0
 20 25  2  0  0  0  0
 21 22  2  0  0  0  0
 21 53  1  0  0  0  0
 22 23  1  0  0  0  0
 22 28  1  0  0  0  0
 23 24  2  0  0  0  0
 23 26  1  0  0  0  0
 24 25  1  0  0  0  0
 24 54  1  0  0  0  0
 26 27  1  0  0  0  0
 27 55  1  0  0  0  0
 27 56  1  0  0  0  0
 27 57  1  0  0  0  0
 28 29  1  0  0  0  0
 29 58  1  0  0  0  0
 29 59  1  0  0  0  0
 29 60  1  0  0  0  0
M  END
>  <Mol_ID>
4768

>  <Formula>
C23H31N3O3

>  <MolWeight>
397.51054

>  <Cat>
S6717

>  <Name>
TCS-OX2-29

>  <Synonyms>
N/A

>  <Target>
OX Receptor

>  <Form>
Free Base

>  <CAS>
372523-75-6

>  <URL>
http://www.selleck.cn/products/tcs-ox2-29.html

$$$$
