Tecovirimat
 OpenBabel08302521313D

 42 46  0  0  0  0  0  0  0  0999 V2000
    0.2456    9.4566    0.6352 F   0  0  0  0  0  0  0  0  0  0  0  0
    1.0951   10.7196   -0.9148 F   0  0  0  0  0  0  0  0  0  0  0  0
    2.3239   10.0779    0.7609 F   0  0  0  0  0  0  0  0  0  0  0  0
    2.2253    2.6849   -5.1556 O   0  0  0  0  0  0  0  0  0  0  0  0
    6.4345    4.3041   -5.1525 O   0  0  0  0  0  0  0  0  0  0  0  0
    2.4797    3.7859   -2.5486 O   0  0  0  0  0  0  0  0  0  0  0  0
    4.3136    3.5694   -4.5663 N   0  0  0  0  0  0  0  0  0  0  0  0
    3.8915    4.8159   -4.0391 N   0  0  0  0  0  0  0  0  0  0  0  0
    5.1672   -0.7935   -5.4161 C   0  0  1  0  0  0  0  0  0  0  0  0
    6.5239   -0.2432   -5.8305 C   0  0  2  0  0  0  0  0  0  0  0  0
    6.4352   -1.5116   -5.0090 C   0  0  0  0  0  0  0  0  0  0  0  0
    4.4133    0.2558   -4.5676 C   0  0  2  0  0  0  0  0  0  0  0  0
    6.7574    1.1647   -5.2256 C   0  0  1  0  0  0  0  0  0  0  0  0
    4.2531    1.4610   -5.5447 C   0  0  2  0  0  0  0  0  0  0  0  0
    5.6525    2.0901   -5.8169 C   0  0  1  0  0  0  0  0  0  0  0  0
    5.2807    0.6898   -3.3832 C   0  0  0  0  0  0  0  0  0  0  0  0
    6.5067    1.1345   -3.7222 C   0  0  0  0  0  0  0  0  0  0  0  0
    3.4412    2.6140   -5.0242 C   0  0  0  0  0  0  0  0  0  0  0  0
    5.5645    3.4456   -5.1315 C   0  0  0  0  0  0  0  0  0  0  0  0
    2.9905    4.8159   -2.9860 C   0  0  0  0  0  0  0  0  0  0  0  0
    2.6257    6.1159   -2.3249 C   0  0  0  0  0  0  0  0  0  0  0  0
    1.5196    6.0868   -1.4554 C   0  0  0  0  0  0  0  0  0  0  0  0
    3.3100    7.3273   -2.4838 C   0  0  0  0  0  0  0  0  0  0  0  0
    1.1121    7.2223   -0.7512 C   0  0  0  0  0  0  0  0  0  0  0  0
    2.8994    8.4722   -1.7671 C   0  0  0  0  0  0  0  0  0  0  0  0
    1.7983    8.4305   -0.8932 C   0  0  0  0  0  0  0  0  0  0  0  0
    1.3688    9.6539   -0.1123 C   0  0  0  0  0  0  0  0  0  0  0  0
    4.5423    5.5831   -4.1920 H   0  0  0  0  0  0  0  0  0  0  0  0
    4.5406   -1.2629   -6.1657 H   0  0  0  0  0  0  0  0  0  0  0  0
    6.8222   -0.3229   -6.8685 H   0  0  0  0  0  0  0  0  0  0  0  0
    6.6546   -2.4540   -5.5014 H   0  0  0  0  0  0  0  0  0  0  0  0
    6.7422   -1.5135   -3.9690 H   0  0  0  0  0  0  0  0  0  0  0  0
    3.4506   -0.1331   -4.2235 H   0  0  0  0  0  0  0  0  0  0  0  0
    7.7625    1.5311   -5.4540 H   0  0  0  0  0  0  0  0  0  0  0  0
    3.8138    1.1317   -6.4944 H   0  0  0  0  0  0  0  0  0  0  0  0
    5.7864    2.2424   -6.8949 H   0  0  0  0  0  0  0  0  0  0  0  0
    4.9452    0.5819   -2.3592 H   0  0  0  0  0  0  0  0  0  0  0  0
    7.2681    1.4339   -3.0128 H   0  0  0  0  0  0  0  0  0  0  0  0
    0.9610    5.1610   -1.3172 H   0  0  0  0  0  0  0  0  0  0  0  0
    4.1739    7.4173   -3.1354 H   0  0  0  0  0  0  0  0  0  0  0  0
    0.2510    7.1476   -0.0849 H   0  0  0  0  0  0  0  0  0  0  0  0
    3.4539    9.4050   -1.8881 H   0  0  0  0  0  0  0  0  0  0  0  0
  1 27  1  0  0  0  0
  2 27  1  0  0  0  0
  3 27  1  0  0  0  0
  4 18  2  0  0  0  0
  5 19  2  0  0  0  0
  6 20  2  0  0  0  0
  7  8  1  0  0  0  0
  7 18  1  0  0  0  0
  7 19  1  0  0  0  0
  8 20  1  0  0  0  0
  8 28  1  0  0  0  0
  9 10  1  0  0  0  0
  9 11  1  0  0  0  0
  9 12  1  0  0  0  0
  9 29  1  6  0  0  0
 10 11  1  0  0  0  0
 10 13  1  0  0  0  0
 10 30  1  6  0  0  0
 11 31  1  0  0  0  0
 11 32  1  0  0  0  0
 12 14  1  0  0  0  0
 12 16  1  0  0  0  0
 12 33  1  1  0  0  0
 13 15  1  0  0  0  0
 13 17  1  0  0  0  0
 13 34  1  6  0  0  0
 14 15  1  0  0  0  0
 14 18  1  0  0  0  0
 14 35  1  6  0  0  0
 15 19  1  0  0  0  0
 15 36  1  6  0  0  0
 16 17  2  0  0  0  0
 16 37  1  0  0  0  0
 17 38  1  0  0  0  0
 20 21  1  0  0  0  0
 21 22  2  0  0  0  0
 21 23  1  0  0  0  0
 22 24  1  0  0  0  0
 22 39  1  0  0  0  0
 23 25  2  0  0  0  0
 23 40  1  0  0  0  0
 24 26  2  0  0  0  0
 24 41  1  0  0  0  0
 25 26  1  0  0  0  0
 25 42  1  0  0  0  0
 26 27  1  0  0  0  0
M  END
>  <Mol_ID>
5776

>  <Formula>
C19H15F3N2O3

>  <MolWeight>
376.3292096

>  <Cat>
S3380

>  <Name>
Tecovirimat

>  <Synonyms>
Arestvyr, SIGA-246, ST-246, TPOXX

>  <Target>
Antiviral

>  <Form>
Free Base

>  <CAS>
869572-92-9

>  <URL>
http://www.selleckchem.com/products/tecovirimat.html

$$$$
