Tectochrysin
 OpenBabel08302521243D

 32 34  0  0  0  0  0  0  0  0999 V2000
    2.4790   -0.0402   -0.0068 C   0  0  0  0  0  0  0  0  0  0  0  0
    2.3158   -1.4257   -0.0136 C   0  0  0  0  0  0  0  0  0  0  0  0
    1.0266   -1.9639    0.0122 C   0  0  0  0  0  0  0  0  0  0  0  0
   -0.0899   -1.1215    0.0413 C   0  0  0  0  0  0  0  0  0  0  0  0
    0.0700    0.2660    0.0389 C   0  0  0  0  0  0  0  0  0  0  0  0
    1.3611    0.8000    0.0188 C   0  0  0  0  0  0  0  0  0  0  0  0
   -1.3192   -1.7356    0.0694 O   0  0  0  0  0  0  0  0  0  0  0  0
   -2.4497   -0.9407    0.0464 C   0  0  0  0  0  0  0  0  0  0  0  0
   -2.4297    0.3994    0.0468 C   0  0  0  0  0  0  0  0  0  0  0  0
   -1.1449    1.1056    0.0495 C   0  0  0  0  0  0  0  0  0  0  0  0
    3.3310   -2.3439   -0.0437 O   0  0  0  0  0  0  0  0  0  0  0  0
    4.6593   -1.8302   -0.0690 C   0  0  0  0  0  0  0  0  0  0  0  0
    1.5592    2.1513    0.0224 O   0  0  0  0  0  0  0  0  0  0  0  0
   -1.1518    2.3319    0.0497 O   0  0  0  0  0  0  0  0  0  0  0  0
   -3.7292   -1.6670    0.0211 C   0  0  0  0  0  0  0  0  0  0  0  0
   -4.8518   -1.1165   -0.6193 C   0  0  0  0  0  0  0  0  0  0  0  0
   -6.0624   -1.8042   -0.6536 C   0  0  0  0  0  0  0  0  0  0  0  0
   -6.1618   -3.0567   -0.0543 C   0  0  0  0  0  0  0  0  0  0  0  0
   -5.0600   -3.6183    0.5826 C   0  0  0  0  0  0  0  0  0  0  0  0
   -3.8479   -2.9282    0.6212 C   0  0  0  0  0  0  0  0  0  0  0  0
    3.4672    0.4045   -0.0240 H   0  0  0  0  0  0  0  0  0  0  0  0
    0.8913   -3.0431    0.0074 H   0  0  0  0  0  0  0  0  0  0  0  0
   -3.3167    1.0162    0.0409 H   0  0  0  0  0  0  0  0  0  0  0  0
    4.8357   -1.2377   -0.9734 H   0  0  0  0  0  0  0  0  0  0  0  0
    4.8720   -1.2452    0.8324 H   0  0  0  0  0  0  0  0  0  0  0  0
    5.3514   -2.6772   -0.0864 H   0  0  0  0  0  0  0  0  0  0  0  0
    2.5052    2.3630    0.0232 H   0  0  0  0  0  0  0  0  0  0  0  0
   -4.7938   -0.1451   -1.1030 H   0  0  0  0  0  0  0  0  0  0  0  0
   -6.9220   -1.3634   -1.1515 H   0  0  0  0  0  0  0  0  0  0  0  0
   -7.1062   -3.5979   -0.0910 H   0  0  0  0  0  0  0  0  0  0  0  0
   -5.1424   -4.5953    1.0520 H   0  0  0  0  0  0  0  0  0  0  0  0
   -2.9983   -3.3758    1.1322 H   0  0  0  0  0  0  0  0  0  0  0  0
  1  2  2  0  0  0  0
  1 21  1  0  0  0  0
  2  3  1  0  0  0  0
  2 11  1  0  0  0  0
  3  4  2  0  0  0  0
  3 22  1  0  0  0  0
  4  5  1  0  0  0  0
  4  7  1  0  0  0  0
  5  6  2  0  0  0  0
  6  1  1  0  0  0  0
  6 13  1  0  0  0  0
  7  8  1  0  0  0  0
  8  9  2  0  0  0  0
  8 15  1  0  0  0  0
  9 10  1  0  0  0  0
  9 23  1  0  0  0  0
 10  5  1  0  0  0  0
 10 14  2  0  0  0  0
 11 12  1  0  0  0  0
 12 24  1  0  0  0  0
 12 25  1  0  0  0  0
 12 26  1  0  0  0  0
 13 27  1  0  0  0  0
 15 16  2  0  0  0  0
 16 17  1  0  0  0  0
 16 28  1  0  0  0  0
 17 18  2  0  0  0  0
 17 29  1  0  0  0  0
 18 19  1  0  0  0  0
 18 30  1  0  0  0  0
 19 20  2  0  0  0  0
 19 31  1  0  0  0  0
 20 15  1  0  0  0  0
 20 32  1  0  0  0  0
M  END
>  <Mol_ID>
5134

>  <Formula>
C16H12O4

>  <MolWeight>
268.26408

>  <Cat>
S3256

>  <Name>
Tectochrysin

>  <Synonyms>
Techtochrysin, NSC 80687

>  <Target>
Apoptosis related,NF-¦ÊB

>  <Form>
free base

>  <CAS>
520-28-5

>  <URL>
http://www.selleckchem.com/products/tectochrysin.html

$$$$
