Tegoprazan
 OpenBabel08302521313D

 47 50  0  0  0  0  0  0  0  0999 V2000
    3.1779   -0.9225   -0.3646 F   0  0  0  0  0  0  0  0  0  0  0  0
    7.6954   -1.9944   -1.1290 F   0  0  0  0  0  0  0  0  0  0  0  0
    1.2184   -2.9132   -1.6436 O   0  0  0  0  0  0  0  0  0  0  0  0
    4.5022   -5.4288   -1.3497 O   0  0  0  0  0  0  0  0  0  0  0  0
    0.0660    1.4808   -3.9594 O   0  0  0  0  0  0  0  0  0  0  0  0
    4.1483   -2.7080   -5.1006 N   0  0  0  0  0  0  0  0  0  0  0  0
    2.4558   -3.9337   -4.5624 N   0  0  0  0  0  0  0  0  0  0  0  0
    0.7977    1.1095   -6.1146 N   0  0  0  0  0  0  0  0  0  0  0  0
    2.2584   -3.6078   -0.9005 C   0  0  1  0  0  0  0  0  0  0  0  0
    2.1103   -5.0998   -1.2013 C   0  0  0  0  0  0  0  0  0  0  0  0
    3.7146   -3.1549   -0.9595 C   0  0  0  0  0  0  0  0  0  0  0  0
    3.3115   -5.8591   -0.6846 C   0  0  0  0  0  0  0  0  0  0  0  0
    4.7362   -4.0885   -1.1991 C   0  0  0  0  0  0  0  0  0  0  0  0
    1.6159   -2.2711   -2.7909 C   0  0  0  0  0  0  0  0  0  0  0  0
    2.4608   -2.7772   -3.7861 C   0  0  0  0  0  0  0  0  0  0  0  0
    4.0987   -1.8346   -0.6984 C   0  0  0  0  0  0  0  0  0  0  0  0
    3.2704   -1.8489   -4.4421 C   0  0  0  0  0  0  0  0  0  0  0  0
    1.0553   -1.0296   -3.1111 C   0  0  0  0  0  0  0  0  0  0  0  0
    6.0729   -3.6945   -1.2904 C   0  0  0  0  0  0  0  0  0  0  0  0
    1.6093   -0.2363   -4.1414 C   0  0  0  0  0  0  0  0  0  0  0  0
    2.8927   -0.5273   -4.6313 C   0  0  0  0  0  0  0  0  0  0  0  0
    5.4325   -1.4343   -0.7543 C   0  0  0  0  0  0  0  0  0  0  0  0
    6.4090   -2.3691   -1.0661 C   0  0  0  0  0  0  0  0  0  0  0  0
    3.1844   -3.5765   -5.6231 C   0  0  0  0  0  0  0  0  0  0  0  0
    0.7964    0.8597   -4.7292 C   0  0  0  0  0  0  0  0  0  0  0  0
    2.7931   -3.4279   -7.0615 C   0  0  0  0  0  0  0  0  0  0  0  0
    1.4685    0.3374   -7.1523 C   0  0  0  0  0  0  0  0  0  0  0  0
   -0.1139    2.1351   -6.5955 C   0  0  0  0  0  0  0  0  0  0  0  0
    4.8287   -3.1808   -4.5255 H   0  0  0  0  0  0  0  0  0  0  0  0
    1.9826   -3.4760    0.1569 H   0  0  0  0  0  0  0  0  0  0  0  0
    2.0189   -5.2575   -2.2808 H   0  0  0  0  0  0  0  0  0  0  0  0
    1.1839   -5.4780   -0.7542 H   0  0  0  0  0  0  0  0  0  0  0  0
    3.4320   -5.7520    0.4039 H   0  0  0  0  0  0  0  0  0  0  0  0
    3.1925   -6.9267   -0.8907 H   0  0  0  0  0  0  0  0  0  0  0  0
    0.1682   -0.6870   -2.5780 H   0  0  0  0  0  0  0  0  0  0  0  0
    6.8576   -4.4242   -1.4956 H   0  0  0  0  0  0  0  0  0  0  0  0
    3.4130    0.1146   -5.3253 H   0  0  0  0  0  0  0  0  0  0  0  0
    5.7129   -0.4059   -0.5446 H   0  0  0  0  0  0  0  0  0  0  0  0
    1.7069   -3.3868   -7.1906 H   0  0  0  0  0  0  0  0  0  0  0  0
    3.1862   -2.4771   -7.4564 H   0  0  0  0  0  0  0  0  0  0  0  0
    3.2110   -4.2255   -7.6763 H   0  0  0  0  0  0  0  0  0  0  0  0
    0.8405    0.2832   -8.0464 H   0  0  0  0  0  0  0  0  0  0  0  0
    2.4024    0.8528   -7.4101 H   0  0  0  0  0  0  0  0  0  0  0  0
    1.6770   -0.6820   -6.8376 H   0  0  0  0  0  0  0  0  0  0  0  0
   -1.1213    1.7053   -6.6450 H   0  0  0  0  0  0  0  0  0  0  0  0
   -0.1212    2.9924   -5.9209 H   0  0  0  0  0  0  0  0  0  0  0  0
    0.1838    2.4696   -7.5946 H   0  0  0  0  0  0  0  0  0  0  0  0
  1 16  1  0  0  0  0
  2 23  1  0  0  0  0
  3 14  1  0  0  0  0
  4 12  1  0  0  0  0
  4 13  1  0  0  0  0
  5 25  2  0  0  0  0
  6 17  1  0  0  0  0
  6 24  1  0  0  0  0
  6 29  1  0  0  0  0
  7 15  1  0  0  0  0
  7 24  2  0  0  0  0
  8 25  1  0  0  0  0
  8 27  1  0  0  0  0
  8 28  1  0  0  0  0
  9  3  1  0  0  0  0
  9 10  1  0  0  0  0
  9 11  1  0  0  0  0
  9 30  1  1  0  0  0
 10 12  1  0  0  0  0
 10 31  1  0  0  0  0
 10 32  1  0  0  0  0
 11 13  2  0  0  0  0
 11 16  1  0  0  0  0
 12 33  1  0  0  0  0
 12 34  1  0  0  0  0
 13 19  1  0  0  0  0
 14 15  1  0  0  0  0
 14 18  2  0  0  0  0
 15 17  2  0  0  0  0
 16 22  2  0  0  0  0
 17 21  1  0  0  0  0
 18 20  1  0  0  0  0
 18 35  1  0  0  0  0
 19 23  2  0  0  0  0
 19 36  1  0  0  0  0
 20 21  2  0  0  0  0
 20 25  1  0  0  0  0
 21 37  1  0  0  0  0
 22 23  1  0  0  0  0
 22 38  1  0  0  0  0
 24 26  1  0  0  0  0
 26 39  1  0  0  0  0
 26 40  1  0  0  0  0
 26 41  1  0  0  0  0
 27 42  1  0  0  0  0
 27 43  1  0  0  0  0
 27 44  1  0  0  0  0
 28 45  1  0  0  0  0
 28 46  1  0  0  0  0
 28 47  1  0  0  0  0
M  END
>  <Mol_ID>
6061

>  <Formula>
C20H19F2N3O3

>  <MolWeight>
387.3799664

>  <Cat>
E0054

>  <Name>
Tegoprazan

>  <Synonyms>
CJ-12420, IN-A001, K-CAB, LXI-15028, RQ-00000004

>  <Target>
ATPase

>  <Form>
Free Base

>  <CAS>
942195-55-3

>  <URL>
http://www.selleckchem.com/products/tegoprazan.html

$$$$
