Tenofovir(PMPA).cdx
 OpenBabel08302519583D

 33 34  0  0  0  0  0  0  0  0999 V2000
    8.6807    4.1074    3.1553 N   0  0  0  0  0  0  0  0  0  0  0  0
    7.9217    4.4357    2.0867 C   0  0  0  0  0  0  0  0  0  0  0  0
    6.7361    3.9143    1.7078 N   0  0  0  0  0  0  0  0  0  0  0  0
    6.3124    3.0052    2.5971 C   0  0  0  0  0  0  0  0  0  0  0  0
    6.9560    2.5981    3.7556 C   0  0  0  0  0  0  0  0  0  0  0  0
    8.2232    3.1521    3.9962 C   0  0  0  0  0  0  0  0  0  0  0  0
    5.1810    2.2371    2.5419 N   0  0  0  0  0  0  0  0  0  0  0  0
    5.1220    1.5062    3.7006 C   0  0  0  0  0  0  0  0  0  0  0  0
    6.1908    1.6806    4.4482 N   0  0  0  0  0  0  0  0  0  0  0  0
    9.0316    2.7532    5.0494 N   0  0  0  0  0  0  0  0  0  0  0  0
    4.3588    2.0208    1.3735 C   0  0  0  0  0  0  0  0  0  0  0  0
    3.0827    2.8798    1.2730 C   0  0  2  0  0  0  0  0  0  0  0  0
    2.2250    2.4581    0.1749 O   0  0  0  0  0  0  0  0  0  0  0  0
    1.8451    1.0706    0.2978 C   0  0  0  0  0  0  0  0  0  0  0  0
    0.3358    0.5741   -0.5277 P   0  0  0  0  0  0  0  0  0  0  0  0
   -0.0791   -0.8401   -0.2878 O   0  0  0  0  0  0  0  0  0  0  0  0
   -0.8285    1.5733   -0.0654 O   0  0  0  0  0  0  0  0  0  0  0  0
    0.4307    0.8729   -2.0965 O   0  0  0  0  0  0  0  0  0  0  0  0
    3.4358    4.3579    1.0962 C   0  0  0  0  0  0  0  0  0  0  0  0
    8.3209    5.2203    1.4496 H   0  0  0  0  0  0  0  0  0  0  0  0
    4.3005    0.8360    3.9289 H   0  0  0  0  0  0  0  0  0  0  0  0
    8.5434    2.2591    5.7865 H   0  0  0  0  0  0  0  0  0  0  0  0
    9.7238    3.4452    5.3026 H   0  0  0  0  0  0  0  0  0  0  0  0
    4.9809    2.1413    0.4780 H   0  0  0  0  0  0  0  0  0  0  0  0
    4.1033    0.9560    1.4027 H   0  0  0  0  0  0  0  0  0  0  0  0
    2.4928    2.7916    2.1936 H   0  0  0  0  0  0  0  0  0  0  0  0
    2.6568    0.4547   -0.0976 H   0  0  0  0  0  0  0  0  0  0  0  0
    1.6876    0.8418    1.3560 H   0  0  0  0  0  0  0  0  0  0  0  0
   -1.7128    1.1800   -0.1864 H   0  0  0  0  0  0  0  0  0  0  0  0
   -0.2485    0.4085   -2.6148 H   0  0  0  0  0  0  0  0  0  0  0  0
    2.5477    4.9583    0.8789 H   0  0  0  0  0  0  0  0  0  0  0  0
    3.9008    4.7580    2.0048 H   0  0  0  0  0  0  0  0  0  0  0  0
    4.1353    4.5041    0.2657 H   0  0  0  0  0  0  0  0  0  0  0  0
  1  2  2  0  0  0  0
  2  3  1  0  0  0  0
  2 20  1  0  0  0  0
  3  4  2  0  0  0  0
  4  5  1  0  0  0  0
  4  7  1  0  0  0  0
  5  6  2  0  0  0  0
  6  1  1  0  0  0  0
  6 10  1  0  0  0  0
  7  8  1  0  0  0  0
  7 11  1  0  0  0  0
  8  9  2  0  0  0  0
  8 21  1  0  0  0  0
  9  5  1  0  0  0  0
 10 22  1  0  0  0  0
 10 23  1  0  0  0  0
 11 24  1  0  0  0  0
 11 25  1  0  0  0  0
 12 19  1  0  0  0  0
 12 26  1  1  0  0  0
 12 13  1  0  0  0  0
 12 11  1  0  0  0  0
 13 14  1  0  0  0  0
 14 15  1  0  0  0  0
 14 27  1  0  0  0  0
 14 28  1  0  0  0  0
 15 16  2  0  0  0  0
 15 17  1  0  0  0  0
 15 18  1  0  0  0  0
 17 29  1  0  0  0  0
 18 30  1  0  0  0  0
 19 31  1  0  0  0  0
 19 32  1  0  0  0  0
 19 33  1  0  0  0  0
M  END
>  <Mol_ID>
240

>  <Formula>
C9H14N5O4P

>  <MolWeight>
287.212321

>  <Cat>
S1401

>  <Name>
Tenofovir

>  <Synonyms>
GS-1278

>  <Target>
Antiviral,COVID-19,Reverse Transcriptase

>  <Form>
free base

>  <CAS>
147127-20-6

>  <URL>
http://selleckchem.com/products/Tenofovir.html

$$$$
