Tenofovir alafenamide.cdx
 OpenBabel08302519593D

 62 64  0  0  0  0  0  0  0  0999 V2000
   -2.7028   -3.1993   -6.4728 C   0  0  0  0  0  0  0  0  0  0  0  0
   -3.7874   -2.3751   -6.7213 C   0  0  0  0  0  0  0  0  0  0  0  0
   -5.0557   -2.7574   -6.9597 N   0  0  0  0  0  0  0  0  0  0  0  0
   -5.1525   -4.1104   -6.9481 C   0  0  0  0  0  0  0  0  0  0  0  0
   -4.1949   -5.0260   -6.6811 N   0  0  0  0  0  0  0  0  0  0  0  0
   -2.9487   -4.5784   -6.4057 C   0  0  0  0  0  0  0  0  0  0  0  0
   -1.5384   -2.4683   -6.3504 N   0  0  0  0  0  0  0  0  0  0  0  0
   -1.9161   -1.2183   -6.5140 C   0  0  0  0  0  0  0  0  0  0  0  0
   -3.2749   -1.1063   -6.6495 N   0  0  0  0  0  0  0  0  0  0  0  0
   -1.9599   -5.4966   -6.0809 N   0  0  0  0  0  0  0  0  0  0  0  0
   -4.0038    0.1424   -6.7105 C   0  0  0  0  0  0  0  0  0  0  0  0
   -3.8036    1.0704   -5.4881 C   0  0  2  0  0  0  0  0  0  0  0  0
   -2.4310    1.5299   -5.3999 O   0  0  0  0  0  0  0  0  0  0  0  0
   -2.2627    2.4851   -4.3410 C   0  0  0  0  0  0  0  0  0  0  0  0
   -0.6376    3.2920   -4.2520 P   0  0  3  0  0  0  0  0  0  0  0  0
   -1.0454    4.7779   -3.6852 N   0  0  0  0  0  0  0  0  0  0  0  0
    0.3507    2.5597   -3.3853 O   0  0  0  0  0  0  0  0  0  0  0  0
   -0.1862    3.5872   -5.7673 O   0  0  0  0  0  0  0  0  0  0  0  0
   -0.2120    5.5169   -2.7332 C   0  0  2  0  0  0  0  0  0  0  0  0
   -0.9806    6.7938   -2.3575 C   0  0  0  0  0  0  0  0  0  0  0  0
    1.1208    5.8996   -3.3606 C   0  0  0  0  0  0  0  0  0  0  0  0
   -1.7596    7.3611   -3.1192 O   0  0  0  0  0  0  0  0  0  0  0  0
   -0.6770    7.2131   -1.0971 O   0  0  0  0  0  0  0  0  0  0  0  0
   -1.3548    8.4111   -0.6659 C   0  0  0  0  0  0  0  0  0  0  0  0
   -2.7226    8.0582   -0.0896 C   0  0  0  0  0  0  0  0  0  0  0  0
   -0.4862    9.0867    0.3877 C   0  0  0  0  0  0  0  0  0  0  0  0
   -4.2832    0.3964   -4.1976 C   0  0  0  0  0  0  0  0  0  0  0  0
    0.6723    2.8700   -6.5482 C   0  0  0  0  0  0  0  0  0  0  0  0
    0.5769    3.1249   -7.9195 C   0  0  0  0  0  0  0  0  0  0  0  0
    1.4100    2.4647   -8.8243 C   0  0  0  0  0  0  0  0  0  0  0  0
    2.3555    1.5556   -8.3605 C   0  0  0  0  0  0  0  0  0  0  0  0
    2.4746    1.3196   -6.9911 C   0  0  0  0  0  0  0  0  0  0  0  0
    1.6345    1.9799   -6.0841 C   0  0  0  0  0  0  0  0  0  0  0  0
   -6.1298   -4.5191   -7.1887 H   0  0  0  0  0  0  0  0  0  0  0  0
   -1.2521   -0.3643   -6.5194 H   0  0  0  0  0  0  0  0  0  0  0  0
   -1.0213   -5.1185   -6.1698 H   0  0  0  0  0  0  0  0  0  0  0  0
   -2.1396   -6.4197   -6.4550 H   0  0  0  0  0  0  0  0  0  0  0  0
   -3.6839    0.6429   -7.6311 H   0  0  0  0  0  0  0  0  0  0  0  0
   -5.0708   -0.0955   -6.8094 H   0  0  0  0  0  0  0  0  0  0  0  0
   -4.4282    1.9565   -5.6673 H   0  0  0  0  0  0  0  0  0  0  0  0
   -3.0256    3.2632   -4.4504 H   0  0  0  0  0  0  0  0  0  0  0  0
   -2.3821    1.9900   -3.3747 H   0  0  0  0  0  0  0  0  0  0  0  0
   -1.3524    5.4207   -4.4152 H   0  0  0  0  0  0  0  0  0  0  0  0
   -0.0708    4.9125   -1.8304 H   0  0  0  0  0  0  0  0  0  0  0  0
    1.7069    6.5267   -2.6805 H   0  0  0  0  0  0  0  0  0  0  0  0
    1.7179    5.0137   -3.6001 H   0  0  0  0  0  0  0  0  0  0  0  0
    0.9765    6.4694   -4.2862 H   0  0  0  0  0  0  0  0  0  0  0  0
   -1.4685    9.1076   -1.5057 H   0  0  0  0  0  0  0  0  0  0  0  0
   -2.6287    7.3578    0.7477 H   0  0  0  0  0  0  0  0  0  0  0  0
   -3.2448    8.9540    0.2625 H   0  0  0  0  0  0  0  0  0  0  0  0
   -3.3509    7.5677   -0.8401 H   0  0  0  0  0  0  0  0  0  0  0  0
    0.5208    9.2666   -0.0046 H   0  0  0  0  0  0  0  0  0  0  0  0
   -0.9168   10.0446    0.6955 H   0  0  0  0  0  0  0  0  0  0  0  0
   -0.3737    8.4537    1.2746 H   0  0  0  0  0  0  0  0  0  0  0  0
   -4.2626    1.0886   -3.3498 H   0  0  0  0  0  0  0  0  0  0  0  0
   -5.3160    0.0492   -4.2943 H   0  0  0  0  0  0  0  0  0  0  0  0
   -3.6425   -0.4488   -3.9279 H   0  0  0  0  0  0  0  0  0  0  0  0
   -0.1465    3.8466   -8.2855 H   0  0  0  0  0  0  0  0  0  0  0  0
    1.3246    2.6649   -9.8908 H   0  0  0  0  0  0  0  0  0  0  0  0
    3.0060    1.0378   -9.0605 H   0  0  0  0  0  0  0  0  0  0  0  0
    3.2251    0.6245   -6.6252 H   0  0  0  0  0  0  0  0  0  0  0  0
    1.7844    1.7871   -5.0272 H   0  0  0  0  0  0  0  0  0  0  0  0
  1  2  1  0  0  0  0
  1  7  1  0  0  0  0
  2  3  2  0  0  0  0
  3  4  1  0  0  0  0
  4  5  2  0  0  0  0
  4 34  1  0  0  0  0
  5  6  1  0  0  0  0
  6  1  2  0  0  0  0
  6 10  1  0  0  0  0
  7  8  2  0  0  0  0
  8  9  1  0  0  0  0
  8 35  1  0  0  0  0
  9  2  1  0  0  0  0
  9 11  1  0  0  0  0
 10 36  1  0  0  0  0
 10 37  1  0  0  0  0
 11 38  1  0  0  0  0
 11 39  1  0  0  0  0
 12 27  1  0  0  0  0
 12 40  1  6  0  0  0
 12 13  1  0  0  0  0
 12 11  1  0  0  0  0
 13 14  1  0  0  0  0
 14 41  1  0  0  0  0
 14 42  1  0  0  0  0
 15 14  1  0  0  0  0
 15 16  1  0  0  0  0
 15 17  2  0  0  0  0
 15 18  1  0  0  0  0
 16 43  1  0  0  0  0
 18 28  1  0  0  0  0
 19 21  1  0  0  0  0
 19 44  1  1  0  0  0
 19 20  1  0  0  0  0
 19 16  1  0  0  0  0
 20 22  2  0  0  0  0
 20 23  1  0  0  0  0
 21 45  1  0  0  0  0
 21 46  1  0  0  0  0
 21 47  1  0  0  0  0
 23 24  1  0  0  0  0
 24 25  1  0  0  0  0
 24 26  1  0  0  0  0
 24 48  1  0  0  0  0
 25 49  1  0  0  0  0
 25 50  1  0  0  0  0
 25 51  1  0  0  0  0
 26 52  1  0  0  0  0
 26 53  1  0  0  0  0
 26 54  1  0  0  0  0
 27 55  1  0  0  0  0
 27 56  1  0  0  0  0
 27 57  1  0  0  0  0
 28 29  2  0  0  0  0
 29 30  1  0  0  0  0
 29 58  1  0  0  0  0
 30 31  2  0  0  0  0
 30 59  1  0  0  0  0
 31 32  1  0  0  0  0
 31 60  1  0  0  0  0
 32 33  2  0  0  0  0
 32 61  1  0  0  0  0
 33 28  1  0  0  0  0
 33 62  1  0  0  0  0
M  END
>  <Mol_ID>
2603

>  <Formula>
C21H29N6O5P

>  <MolWeight>
476.465921

>  <Cat>
S7856

>  <Name>
Tenofovir Alafenamide (GS-7340)

>  <Synonyms>
N/A

>  <Target>
Reverse Transcriptase

>  <Form>
free base

>  <CAS>
379270-37-8

>  <URL>
http://selleckchem.com/products/tenofovir-alafenamide-gs-7340.html

$$$$
