¦Ã-Terpinene
 OpenBabel08302521323D

 26 26  0  0  0  0  0  0  0  0999 V2000
    0.9756   -0.0266    0.0092 C   0  0  0  0  0  0  0  0  0  0  0  0
    0.4833   -1.4588   -0.2054 C   0  0  0  0  0  0  0  0  0  0  0  0
    1.2037   -2.5208    0.6096 C   0  0  0  0  0  0  0  0  0  0  0  0
   -0.9132   -3.2255   -1.3477 C   0  0  0  0  0  0  0  0  0  0  0  0
   -0.4859   -1.8103   -1.0757 C   0  0  0  0  0  0  0  0  0  0  0  0
   -0.0244   -4.2640   -0.7147 C   0  0  0  0  0  0  0  0  0  0  0  0
    0.9273   -3.9310    0.1776 C   0  0  0  0  0  0  0  0  0  0  0  0
    0.7913    0.4206    1.4632 C   0  0  0  0  0  0  0  0  0  0  0  0
    0.3557    1.0266   -0.9198 C   0  0  0  0  0  0  0  0  0  0  0  0
   -0.2314   -5.6878   -1.1365 C   0  0  0  0  0  0  0  0  0  0  0  0
    2.0538   -0.0279   -0.2052 H   0  0  0  0  0  0  0  0  0  0  0  0
    2.2839   -2.3529    0.5383 H   0  0  0  0  0  0  0  0  0  0  0  0
    0.9208   -2.4285    1.6633 H   0  0  0  0  0  0  0  0  0  0  0  0
   -1.9410   -3.3601   -0.9916 H   0  0  0  0  0  0  0  0  0  0  0  0
   -0.9151   -3.3721   -2.4339 H   0  0  0  0  0  0  0  0  0  0  0  0
   -1.0096   -1.0609   -1.6617 H   0  0  0  0  0  0  0  0  0  0  0  0
    1.5463   -4.7031    0.6251 H   0  0  0  0  0  0  0  0  0  0  0  0
    1.1558    1.4444    1.6045 H   0  0  0  0  0  0  0  0  0  0  0  0
   -0.2637    0.3922    1.7576 H   0  0  0  0  0  0  0  0  0  0  0  0
    1.3542   -0.2148    2.1542 H   0  0  0  0  0  0  0  0  0  0  0  0
    0.8262    2.0036   -0.7630 H   0  0  0  0  0  0  0  0  0  0  0  0
    0.5011    0.7637   -1.9733 H   0  0  0  0  0  0  0  0  0  0  0  0
   -0.7182    1.1433   -0.7357 H   0  0  0  0  0  0  0  0  0  0  0  0
    0.6665   -6.0724   -1.6310 H   0  0  0  0  0  0  0  0  0  0  0  0
   -0.4629   -6.3192   -0.2736 H   0  0  0  0  0  0  0  0  0  0  0  0
   -1.0615   -5.7760   -1.8454 H   0  0  0  0  0  0  0  0  0  0  0  0
  1  2  1  0  0  0  0
  1  8  1  0  0  0  0
  1  9  1  0  0  0  0
  1 11  1  0  0  0  0
  2  3  1  0  0  0  0
  2  5  2  0  0  0  0
  3  7  1  0  0  0  0
  3 12  1  0  0  0  0
  3 13  1  0  0  0  0
  4  5  1  0  0  0  0
  4  6  1  0  0  0  0
  4 14  1  0  0  0  0
  4 15  1  0  0  0  0
  5 16  1  0  0  0  0
  6  7  2  0  0  0  0
  6 10  1  0  0  0  0
  7 17  1  0  0  0  0
  8 18  1  0  0  0  0
  8 19  1  0  0  0  0
  8 20  1  0  0  0  0
  9 21  1  0  0  0  0
  9 22  1  0  0  0  0
  9 23  1  0  0  0  0
 10 24  1  0  0  0  0
 10 25  1  0  0  0  0
 10 26  1  0  0  0  0
M  END
>  <Mol_ID>
6318

>  <Formula>
C10H16

>  <MolWeight>
136.23404

>  <Cat>
E0650

>  <Name>
¦Ã-Terpinene

>  <Synonyms>
¦Ã-TPN

>  <Target>
Antioxidant

>  <Form>
free base

>  <CAS>
99-85-4

>  <URL>
http://www.selleckchem.com/products/gamma-terpinen.html

$$$$
