¦Á-Terpineol
 OpenBabel08302521503D

 29 29  0  0  0  0  0  0  0  0999 V2000
    1.0138   -0.0436   -0.0276 C   0  0  0  0  0  0  0  0  0  0  0  0
    0.4493   -1.3032    0.6480 C   0  0  0  0  0  0  0  0  0  0  0  0
    0.4844    1.1883    0.7168 C   0  0  0  0  0  0  0  0  0  0  0  0
    0.5014    0.0002   -1.3632 O   0  0  0  0  0  0  0  0  0  0  0  0
    6.7667   -0.0206   -1.4526 C   0  0  0  0  0  0  0  0  0  0  0  0
    2.5738   -0.0663   -0.0915 C   0  0  3  0  0  0  0  0  0  0  0  0
    3.1183   -1.2729   -0.8825 C   0  0  0  0  0  0  0  0  0  0  0  0
    3.1502    1.2343   -0.7021 C   0  0  0  0  0  0  0  0  0  0  0  0
    4.6483   -1.3208   -0.8950 C   0  0  0  0  0  0  0  0  0  0  0  0
    4.6102    1.1634   -1.0468 C   0  0  0  0  0  0  0  0  0  0  0  0
    5.3024    0.0146   -1.1248 C   0  0  0  0  0  0  0  0  0  0  0  0
    0.8451   -1.4260    1.6620 H   0  0  0  0  0  0  0  0  0  0  0  0
   -0.6439   -1.2527    0.7118 H   0  0  0  0  0  0  0  0  0  0  0  0
    0.6639   -2.2077    0.0714 H   0  0  0  0  0  0  0  0  0  0  0  0
    0.7430    2.1167    0.1977 H   0  0  0  0  0  0  0  0  0  0  0  0
   -0.6114    1.1742    0.7604 H   0  0  0  0  0  0  0  0  0  0  0  0
    0.8683    1.2348    1.7408 H   0  0  0  0  0  0  0  0  0  0  0  0
   -0.4712   -0.0075   -1.3148 H   0  0  0  0  0  0  0  0  0  0  0  0
    7.3249   -0.4900   -0.6362 H   0  0  0  0  0  0  0  0  0  0  0  0
    6.9359   -0.5985   -2.3669 H   0  0  0  0  0  0  0  0  0  0  0  0
    7.1791    0.9811   -1.6093 H   0  0  0  0  0  0  0  0  0  0  0  0
    2.9510   -0.1455    0.9392 H   0  0  0  0  0  0  0  0  0  0  0  0
    2.7630   -2.2158   -0.4551 H   0  0  0  0  0  0  0  0  0  0  0  0
    2.7517   -1.2349   -1.9162 H   0  0  0  0  0  0  0  0  0  0  0  0
    3.0197    2.0540    0.0143 H   0  0  0  0  0  0  0  0  0  0  0  0
    2.6043    1.5125   -1.6115 H   0  0  0  0  0  0  0  0  0  0  0  0
    4.9608   -2.0249   -1.6757 H   0  0  0  0  0  0  0  0  0  0  0  0
    5.0070   -1.7215    0.0609 H   0  0  0  0  0  0  0  0  0  0  0  0
    5.1044    2.1124   -1.2420 H   0  0  0  0  0  0  0  0  0  0  0  0
  1  2  1  0  0  0  0
  1  3  1  0  0  0  0
  1  4  1  0  0  0  0
  1  6  1  0  0  0  0
  2 12  1  0  0  0  0
  2 13  1  0  0  0  0
  2 14  1  0  0  0  0
  3 15  1  0  0  0  0
  3 16  1  0  0  0  0
  3 17  1  0  0  0  0
  4 18  1  0  0  0  0
  5 11  1  0  0  0  0
  5 19  1  0  0  0  0
  5 20  1  0  0  0  0
  5 21  1  0  0  0  0
  6  7  1  0  0  0  0
  6  8  1  0  0  0  0
  6 22  1  0  0  0  0
  7  9  1  0  0  0  0
  7 23  1  0  0  0  0
  7 24  1  0  0  0  0
  8 10  1  0  0  0  0
  8 25  1  0  0  0  0
  8 26  1  0  0  0  0
  9 11  1  0  0  0  0
  9 27  1  0  0  0  0
  9 28  1  0  0  0  0
 10 11  2  0  0  0  0
 10 29  1  0  0  0  0
M  END
>  <Mol_ID>
9932

>  <Formula>
C10H18O

>  <MolWeight>
154.24932

>  <Cat>
E5150

>  <Name>
¦Á-Terpineol

>  <Synonyms>
N/A

>  <Target>
Immunology & Inflammation related, Antioxidant

>  <Form>
free base

>  <CAS>
98-55-5

>  <URL>
https://www.selleckchem.com/products/alpha-terpineol.html

$$$$
