Tetradecanedioic acid
 OpenBabel08302520393D

 44 43  0  0  0  0  0  0  0  0999 V2000
    0.0112   -6.1820    1.8880 C   0  0  0  0  0  0  0  0  0  0  0  0
   -1.0121   -5.1835    1.4091 C   0  0  0  0  0  0  0  0  0  0  0  0
   -0.5533   -7.2900    2.4235 O   0  0  0  0  0  0  0  0  0  0  0  0
    1.2217   -6.0398    1.8270 O   0  0  0  0  0  0  0  0  0  0  0  0
   -0.3528   -3.9508    0.7880 C   0  0  0  0  0  0  0  0  0  0  0  0
   -1.3603   -2.9301    0.2521 C   0  0  0  0  0  0  0  0  0  0  0  0
   -2.2805   -2.3912    1.3468 C   0  0  0  0  0  0  0  0  0  0  0  0
   -3.2653   -1.3773    0.7843 C   0  0  0  0  0  0  0  0  0  0  0  0
   -4.2160   -0.8705    1.8698 C   0  0  0  0  0  0  0  0  0  0  0  0
   -5.2312    0.1350    1.3283 C   0  0  0  0  0  0  0  0  0  0  0  0
   -6.1297   -0.4722    0.2491 C   0  0  0  0  0  0  0  0  0  0  0  0
   -7.1170    0.5536   -0.2892 C   0  0  0  0  0  0  0  0  0  0  0  0
   -7.9826   -0.0475   -1.3975 C   0  0  0  0  0  0  0  0  0  0  0  0
   -8.9976    0.9501   -1.9553 C   0  0  0  0  0  0  0  0  0  0  0  0
   -8.3463    2.1789   -2.5917 C   0  0  0  0  0  0  0  0  0  0  0  0
   -9.3718    3.1400   -3.1391 C   0  0  0  0  0  0  0  0  0  0  0  0
   -8.8016    4.2294   -3.7048 O   0  0  0  0  0  0  0  0  0  0  0  0
  -10.5823    2.9915   -3.0855 O   0  0  0  0  0  0  0  0  0  0  0  0
   -1.6570   -5.6710    0.6702 H   0  0  0  0  0  0  0  0  0  0  0  0
   -1.6117   -4.8990    2.2801 H   0  0  0  0  0  0  0  0  0  0  0  0
   -1.5306   -7.2778    2.4176 H   0  0  0  0  0  0  0  0  0  0  0  0
    0.2931   -3.4628    1.5272 H   0  0  0  0  0  0  0  0  0  0  0  0
    0.3000   -4.2592   -0.0382 H   0  0  0  0  0  0  0  0  0  0  0  0
   -0.8087   -2.0964   -0.2008 H   0  0  0  0  0  0  0  0  0  0  0  0
   -1.9542   -3.3856   -0.5499 H   0  0  0  0  0  0  0  0  0  0  0  0
   -2.8555   -3.2105    1.7916 H   0  0  0  0  0  0  0  0  0  0  0  0
   -1.6847   -1.9340    2.1446 H   0  0  0  0  0  0  0  0  0  0  0  0
   -2.7290   -0.5331    0.3356 H   0  0  0  0  0  0  0  0  0  0  0  0
   -3.8279   -1.8694   -0.0158 H   0  0  0  0  0  0  0  0  0  0  0  0
   -4.7479   -1.7141    2.3269 H   0  0  0  0  0  0  0  0  0  0  0  0
   -3.6359   -0.3922    2.6690 H   0  0  0  0  0  0  0  0  0  0  0  0
   -5.8502    0.4952    2.1593 H   0  0  0  0  0  0  0  0  0  0  0  0
   -4.7002    1.0072    0.9276 H   0  0  0  0  0  0  0  0  0  0  0  0
   -5.5266   -0.8256   -0.5934 H   0  0  0  0  0  0  0  0  0  0  0  0
   -6.6641   -1.3386    0.6551 H   0  0  0  0  0  0  0  0  0  0  0  0
   -7.7524    0.9254    0.5217 H   0  0  0  0  0  0  0  0  0  0  0  0
   -6.5449    1.4029   -0.6771 H   0  0  0  0  0  0  0  0  0  0  0  0
   -7.3469   -0.4191   -2.2111 H   0  0  0  0  0  0  0  0  0  0  0  0
   -8.5253   -0.9158   -1.0021 H   0  0  0  0  0  0  0  0  0  0  0  0
   -9.6171    0.4376   -2.7021 H   0  0  0  0  0  0  0  0  0  0  0  0
   -9.6765    1.2628   -1.1523 H   0  0  0  0  0  0  0  0  0  0  0  0
   -7.7609    2.7285   -1.8488 H   0  0  0  0  0  0  0  0  0  0  0  0
   -7.6887    1.8666   -3.4104 H   0  0  0  0  0  0  0  0  0  0  0  0
   -7.8262    4.2252   -3.6671 H   0  0  0  0  0  0  0  0  0  0  0  0
  1  2  1  0  0  0  0
  1  3  1  0  0  0  0
  1  4  2  0  0  0  0
  2  5  1  0  0  0  0
  2 19  1  0  0  0  0
  2 20  1  0  0  0  0
  3 21  1  0  0  0  0
  5  6  1  0  0  0  0
  5 22  1  0  0  0  0
  5 23  1  0  0  0  0
  6  7  1  0  0  0  0
  6 24  1  0  0  0  0
  6 25  1  0  0  0  0
  7  8  1  0  0  0  0
  7 26  1  0  0  0  0
  7 27  1  0  0  0  0
  8  9  1  0  0  0  0
  8 28  1  0  0  0  0
  8 29  1  0  0  0  0
  9 10  1  0  0  0  0
  9 30  1  0  0  0  0
  9 31  1  0  0  0  0
 10 11  1  0  0  0  0
 10 32  1  0  0  0  0
 10 33  1  0  0  0  0
 11 12  1  0  0  0  0
 11 34  1  0  0  0  0
 11 35  1  0  0  0  0
 12 13  1  0  0  0  0
 12 36  1  0  0  0  0
 12 37  1  0  0  0  0
 13 14  1  0  0  0  0
 13 38  1  0  0  0  0
 13 39  1  0  0  0  0
 14 15  1  0  0  0  0
 14 40  1  0  0  0  0
 14 41  1  0  0  0  0
 15 16  1  0  0  0  0
 15 42  1  0  0  0  0
 15 43  1  0  0  0  0
 16 17  1  0  0  0  0
 16 18  2  0  0  0  0
 17 44  1  0  0  0  0
M  END
>  <Mol_ID>
3673

>  <Formula>
C14H26O4

>  <MolWeight>
258.35384

>  <Cat>
S6344

>  <Name>
Tetradecanedioic acid

>  <Synonyms>
Tetradecanedicarboxylate

>  <Target>
Others

>  <Form>
free base

>  <CAS>
821-38-5

>  <URL>
http://www.selleck.cn/products/tetradecanedioic-acid.html

$$$$
