Tetrahydromagnolol
 OpenBabel08302521463D

 42 43  0  0  0  0  0  0  0  0999 V2000
    2.3088    0.1128    0.0997 O   0  0  0  0  0  0  0  0  0  0  0  0
    2.8008   -2.0467   -1.3809 O   0  0  0  0  0  0  0  0  0  0  0  0
   -3.3492    0.1629   -0.0921 C   0  0  0  0  0  0  0  0  0  0  0  0
   -3.9836   -0.3726    1.1981 C   0  0  0  0  0  0  0  0  0  0  0  0
   -3.5450    0.3731    2.4516 C   0  0  0  0  0  0  0  0  0  0  0  0
    0.1195   -5.9755    1.6918 C   0  0  0  0  0  0  0  0  0  0  0  0
   -1.2419   -6.3566    1.0922 C   0  0  0  0  0  0  0  0  0  0  0  0
   -1.1629   -6.8459   -0.3481 C   0  0  0  0  0  0  0  0  0  0  0  0
    0.2532   -1.2161    0.0034 C   0  0  0  0  0  0  0  0  0  0  0  0
   -1.1584   -1.1232   -0.0578 C   0  0  0  0  0  0  0  0  0  0  0  0
    0.9468    0.0102   -0.0108 C   0  0  0  0  0  0  0  0  0  0  0  0
   -1.8402    0.1075   -0.1158 C   0  0  0  0  0  0  0  0  0  0  0  0
    0.2898    1.2361   -0.1402 C   0  0  0  0  0  0  0  0  0  0  0  0
   -1.0977    1.2866   -0.1877 C   0  0  0  0  0  0  0  0  0  0  0  0
    0.9045   -2.5581    0.0841 C   0  0  0  0  0  0  0  0  0  0  0  0
    0.2995   -3.5878    0.8444 C   0  0  0  0  0  0  0  0  0  0  0  0
    2.1084   -2.9003   -0.5628 C   0  0  0  0  0  0  0  0  0  0  0  0
    0.8443   -4.8819    0.9438 C   0  0  0  0  0  0  0  0  0  0  0  0
    2.7008   -4.1566   -0.4147 C   0  0  0  0  0  0  0  0  0  0  0  0
    2.0695   -5.1459    0.3303 C   0  0  0  0  0  0  0  0  0  0  0  0
    2.6727   -0.7301    0.4250 H   0  0  0  0  0  0  0  0  0  0  0  0
    2.2275   -1.2979   -1.6284 H   0  0  0  0  0  0  0  0  0  0  0  0
   -3.6879    1.1953   -0.2490 H   0  0  0  0  0  0  0  0  0  0  0  0
   -3.7295   -0.4108   -0.9464 H   0  0  0  0  0  0  0  0  0  0  0  0
   -5.0729   -0.2864    1.1064 H   0  0  0  0  0  0  0  0  0  0  0  0
   -3.7631   -1.4397    1.3216 H   0  0  0  0  0  0  0  0  0  0  0  0
   -3.6673    1.4545    2.3351 H   0  0  0  0  0  0  0  0  0  0  0  0
   -4.1473    0.0547    3.3090 H   0  0  0  0  0  0  0  0  0  0  0  0
   -2.4969    0.1664    2.6913 H   0  0  0  0  0  0  0  0  0  0  0  0
    0.7475   -6.8757    1.7384 H   0  0  0  0  0  0  0  0  0  0  0  0
   -0.0177   -5.6468    2.7278 H   0  0  0  0  0  0  0  0  0  0  0  0
   -1.6759   -7.1523    1.7095 H   0  0  0  0  0  0  0  0  0  0  0  0
   -1.9338   -5.5076    1.1433 H   0  0  0  0  0  0  0  0  0  0  0  0
   -0.4146   -7.6387   -0.4564 H   0  0  0  0  0  0  0  0  0  0  0  0
   -2.1322   -7.2542   -0.6582 H   0  0  0  0  0  0  0  0  0  0  0  0
   -0.9105   -6.0329   -1.0336 H   0  0  0  0  0  0  0  0  0  0  0  0
   -1.7574   -2.0324   -0.0595 H   0  0  0  0  0  0  0  0  0  0  0  0
    0.8669    2.1565   -0.1836 H   0  0  0  0  0  0  0  0  0  0  0  0
   -1.5917    2.2516   -0.2660 H   0  0  0  0  0  0  0  0  0  0  0  0
   -0.6297   -3.3885    1.3765 H   0  0  0  0  0  0  0  0  0  0  0  0
    3.6490   -4.3681   -0.9024 H   0  0  0  0  0  0  0  0  0  0  0  0
    2.5342   -6.1258    0.4126 H   0  0  0  0  0  0  0  0  0  0  0  0
  1 11  1  0  0  0  0
  1 21  1  0  0  0  0
  2 17  1  0  0  0  0
  2 22  1  0  0  0  0
  3  4  1  0  0  0  0
  3 12  1  0  0  0  0
  3 23  1  0  0  0  0
  3 24  1  0  0  0  0
  4  5  1  0  0  0  0
  4 25  1  0  0  0  0
  4 26  1  0  0  0  0
  5 27  1  0  0  0  0
  5 28  1  0  0  0  0
  5 29  1  0  0  0  0
  6  7  1  0  0  0  0
  6 18  1  0  0  0  0
  6 30  1  0  0  0  0
  6 31  1  0  0  0  0
  7  8  1  0  0  0  0
  7 32  1  0  0  0  0
  7 33  1  0  0  0  0
  8 34  1  0  0  0  0
  8 35  1  0  0  0  0
  8 36  1  0  0  0  0
  9 10  2  0  0  0  0
  9 11  1  0  0  0  0
  9 15  1  0  0  0  0
 10 12  1  0  0  0  0
 10 37  1  0  0  0  0
 11 13  2  0  0  0  0
 12 14  2  0  0  0  0
 13 14  1  0  0  0  0
 13 38  1  0  0  0  0
 14 39  1  0  0  0  0
 15 16  2  0  0  0  0
 15 17  1  0  0  0  0
 16 18  1  0  0  0  0
 16 40  1  0  0  0  0
 17 19  2  0  0  0  0
 18 20  2  0  0  0  0
 19 20  1  0  0  0  0
 19 41  1  0  0  0  0
 20 42  1  0  0  0  0
M  END
>  <Mol_ID>
9655

>  <Formula>
C18H22O2

>  <MolWeight>
270.36608

>  <Cat>
E0567

>  <Name>
Tetrahydromagnolol

>  <Synonyms>
Magnolignan

>  <Target>
cannabinoid CB2?receptor

>  <Form>
Free Base

>  <CAS>
20601-85-8

>  <URL>
https://www.selleckchem.com/products/tetrahydromagnolol.html

$$$$
