Tetrahydrozoline hydrochloride.cdx
 OpenBabel08302522033D

 31 33  0  0  0  0  0  0  0  0999 V2000
   -0.8844   -0.1590    0.9203 N   0  0  0  0  0  0  0  0  0  0  0  0
   -0.4223   -1.1409    0.1835 C   0  0  0  0  0  0  0  0  0  0  0  0
    0.5874   -0.8139   -0.6879 N   0  0  0  0  0  0  0  0  0  0  0  0
    1.0478    0.5194   -0.3699 C   0  0  0  0  0  0  0  0  0  0  0  0
   -0.1362    1.0407    0.4531 C   0  0  0  0  0  0  0  0  0  0  0  0
   -1.0118   -2.5415    0.3201 C   0  0  3  0  0  0  0  0  0  0  0  0
   -1.6444   -3.0681   -0.9612 C   0  0  0  0  0  0  0  0  0  0  0  0
   -1.5885   -4.4331   -1.2900 C   0  0  0  0  0  0  0  0  0  0  0  0
   -0.7866   -5.3941   -0.4537 C   0  0  0  0  0  0  0  0  0  0  0  0
    0.4025   -4.6976    0.1984 C   0  0  0  0  0  0  0  0  0  0  0  0
   -0.0401   -3.5004    1.0337 C   0  0  0  0  0  0  0  0  0  0  0  0
   -2.4155   -2.2090   -1.7652 C   0  0  0  0  0  0  0  0  0  0  0  0
   -3.1354   -2.6991   -2.8543 C   0  0  0  0  0  0  0  0  0  0  0  0
   -3.1132   -4.0568   -3.1444 C   0  0  0  0  0  0  0  0  0  0  0  0
   -2.3427   -4.9228   -2.3698 C   0  0  0  0  0  0  0  0  0  0  0  0
    1.2474   -1.5212   -0.9844 H   0  0  0  0  0  0  0  0  0  0  0  0
    1.2268    1.1270   -1.2596 H   0  0  0  0  0  0  0  0  0  0  0  0
    1.9539    0.4781    0.2387 H   0  0  0  0  0  0  0  0  0  0  0  0
    0.1968    1.6440    1.3029 H   0  0  0  0  0  0  0  0  0  0  0  0
   -0.8086    1.6499   -0.1625 H   0  0  0  0  0  0  0  0  0  0  0  0
   -1.8604   -2.4211    1.0100 H   0  0  0  0  0  0  0  0  0  0  0  0
   -0.4121   -6.2125   -1.0795 H   0  0  0  0  0  0  0  0  0  0  0  0
   -1.4419   -5.8311    0.3095 H   0  0  0  0  0  0  0  0  0  0  0  0
    1.1145   -4.3684   -0.5680 H   0  0  0  0  0  0  0  0  0  0  0  0
    0.9316   -5.4134    0.8395 H   0  0  0  0  0  0  0  0  0  0  0  0
   -0.5521   -3.8928    1.9245 H   0  0  0  0  0  0  0  0  0  0  0  0
    0.8426   -2.9726    1.4150 H   0  0  0  0  0  0  0  0  0  0  0  0
   -2.4782   -1.1476   -1.5340 H   0  0  0  0  0  0  0  0  0  0  0  0
   -3.7354   -2.0256   -3.4538 H   0  0  0  0  0  0  0  0  0  0  0  0
   -3.7067   -4.4467   -3.9688 H   0  0  0  0  0  0  0  0  0  0  0  0
   -2.3440   -5.9844   -2.6017 H   0  0  0  0  0  0  0  0  0  0  0  0
  1  2  2  0  0  0  0
  2  3  1  0  0  0  0
  2  6  1  0  0  0  0
  3  4  1  0  0  0  0
  3 16  1  0  0  0  0
  4  5  1  0  0  0  0
  4 17  1  0  0  0  0
  4 18  1  0  0  0  0
  5  1  1  0  0  0  0
  5 19  1  0  0  0  0
  5 20  1  0  0  0  0
  6  7  1  0  0  0  0
  6 21  1  0  0  0  0
  7 12  2  0  0  0  0
  8  9  1  0  0  0  0
  8  7  1  0  0  0  0
  9 10  1  0  0  0  0
  9 22  1  0  0  0  0
  9 23  1  0  0  0  0
 10 11  1  0  0  0  0
 10 24  1  0  0  0  0
 10 25  1  0  0  0  0
 11  6  1  0  0  0  0
 11 26  1  0  0  0  0
 11 27  1  0  0  0  0
 12 13  1  0  0  0  0
 12 28  1  0  0  0  0
 13 14  2  0  0  0  0
 13 29  1  0  0  0  0
 14 15  1  0  0  0  0
 14 30  1  0  0  0  0
 15  8  2  0  0  0  0
 15 31  1  0  0  0  0
M  END
>  <Mol_ID>
1220

>  <Formula>
C13H17ClN2

>  <MolWeight>
236.74048

>  <Cat>
S4043

>  <Name>
Tetrahydrozoline HCl

>  <Synonyms>
Tetryzoline HCl

>  <Target>
Adrenergic Receptor

>  <Form>
hydrochloride

>  <CAS>
522-48-5

>  <URL>
http://selleckchem.com/products/tetrahydrozoline-hcl.html

$$$$
