TGX-221.cdx
 OpenBabel08302521413D

 51 54  0  0  0  0  0  0  0  0999 V2000
    1.1593   -1.3809    0.0445 C   0  0  0  0  0  0  0  0  0  0  0  0
    2.3322   -0.7339    0.0044 C   0  0  0  0  0  0  0  0  0  0  0  0
    2.3311    0.7059   -0.0229 C   0  0  0  0  0  0  0  0  0  0  0  0
    1.1949    1.4270   -0.0421 C   0  0  0  0  0  0  0  0  0  0  0  0
   -0.1242    0.6792   -0.0124 C   0  0  0  0  0  0  0  0  0  0  0  0
   -0.0519   -0.7123    0.0440 N   0  0  0  0  0  0  0  0  0  0  0  0
    3.6470   -1.4501    0.0015 C   0  0  0  0  0  0  0  0  0  0  0  0
    1.1483    2.9439    0.0015 C   0  0  3  0  0  0  0  0  0  0  0  0
    2.3657    3.5854    0.6953 C   0  0  0  0  0  0  0  0  0  0  0  0
    1.1042    3.4678   -1.3666 N   0  0  0  0  0  0  0  0  0  0  0  0
    0.3599    4.6058   -1.6820 C   0  0  0  0  0  0  0  0  0  0  0  0
   -0.1516    5.4903   -0.7219 C   0  0  0  0  0  0  0  0  0  0  0  0
   -0.8365    6.6524   -1.0843 C   0  0  0  0  0  0  0  0  0  0  0  0
   -0.9934    6.9765   -2.4256 C   0  0  0  0  0  0  0  0  0  0  0  0
   -0.4531    6.1423   -3.3993 C   0  0  0  0  0  0  0  0  0  0  0  0
    0.2240    4.9745   -3.0278 C   0  0  0  0  0  0  0  0  0  0  0  0
   -1.2454    1.3327   -0.0300 N   0  0  0  0  0  0  0  0  0  0  0  0
   -2.4402    0.6542    0.0163 C   0  0  0  0  0  0  0  0  0  0  0  0
   -2.4648   -0.6850    0.0882 C   0  0  0  0  0  0  0  0  0  0  0  0
   -1.2180   -1.4519    0.0896 C   0  0  0  0  0  0  0  0  0  0  0  0
   -1.2841   -2.6818    0.1255 O   0  0  0  0  0  0  0  0  0  0  0  0
   -3.6379    1.3648   -0.0352 N   0  0  0  0  0  0  0  0  0  0  0  0
   -3.7575    2.6318   -0.7813 C   0  0  0  0  0  0  0  0  0  0  0  0
   -4.2959    3.7397    0.1306 C   0  0  0  0  0  0  0  0  0  0  0  0
   -5.5435    3.3595    0.7414 O   0  0  0  0  0  0  0  0  0  0  0  0
   -5.3643    2.1689    1.5248 C   0  0  0  0  0  0  0  0  0  0  0  0
   -4.8782    0.9905    0.6640 C   0  0  0  0  0  0  0  0  0  0  0  0
    1.1179   -2.4677    0.0683 H   0  0  0  0  0  0  0  0  0  0  0  0
    3.2983    1.1962   -0.0188 H   0  0  0  0  0  0  0  0  0  0  0  0
    3.7420   -2.0853    0.8884 H   0  0  0  0  0  0  0  0  0  0  0  0
    3.7381   -2.0741   -0.8934 H   0  0  0  0  0  0  0  0  0  0  0  0
    4.4938   -0.7553    0.0052 H   0  0  0  0  0  0  0  0  0  0  0  0
    0.2622    3.2275    0.5803 H   0  0  0  0  0  0  0  0  0  0  0  0
    3.3001    3.3764    0.1601 H   0  0  0  0  0  0  0  0  0  0  0  0
    2.2759    4.6769    0.7249 H   0  0  0  0  0  0  0  0  0  0  0  0
    2.4671    3.2307    1.7252 H   0  0  0  0  0  0  0  0  0  0  0  0
    1.0836    2.7591   -2.0958 H   0  0  0  0  0  0  0  0  0  0  0  0
   -0.0323    5.3011    0.3390 H   0  0  0  0  0  0  0  0  0  0  0  0
   -1.2326    7.3048   -0.3108 H   0  0  0  0  0  0  0  0  0  0  0  0
   -1.5196    7.8836   -2.7078 H   0  0  0  0  0  0  0  0  0  0  0  0
   -0.5485    6.4033   -4.4496 H   0  0  0  0  0  0  0  0  0  0  0  0
    0.6556    4.3530   -3.8090 H   0  0  0  0  0  0  0  0  0  0  0  0
   -3.3778   -1.2626    0.0914 H   0  0  0  0  0  0  0  0  0  0  0  0
   -4.4621    2.4666   -1.6065 H   0  0  0  0  0  0  0  0  0  0  0  0
   -2.8075    2.9454   -1.2265 H   0  0  0  0  0  0  0  0  0  0  0  0
   -3.5756    3.9883    0.9176 H   0  0  0  0  0  0  0  0  0  0  0  0
   -4.4809    4.6442   -0.4563 H   0  0  0  0  0  0  0  0  0  0  0  0
   -6.3280    1.9232    1.9818 H   0  0  0  0  0  0  0  0  0  0  0  0
   -4.6557    2.3804    2.3348 H   0  0  0  0  0  0  0  0  0  0  0  0
   -5.6396    0.7354   -0.0821 H   0  0  0  0  0  0  0  0  0  0  0  0
   -4.7391    0.1216    1.3160 H   0  0  0  0  0  0  0  0  0  0  0  0
  1  2  2  0  0  0  0
  1 28  1  0  0  0  0
  2  3  1  0  0  0  0
  2  7  1  0  0  0  0
  3  4  2  0  0  0  0
  3 29  1  0  0  0  0
  4  5  1  0  0  0  0
  4  8  1  0  0  0  0
  5  6  1  0  0  0  0
  5 17  2  0  0  0  0
  6  1  1  0  0  0  0
  7 30  1  0  0  0  0
  7 31  1  0  0  0  0
  7 32  1  0  0  0  0
  8  9  1  0  0  0  0
  8 10  1  0  0  0  0
  8 33  1  0  0  0  0
  9 34  1  0  0  0  0
  9 35  1  0  0  0  0
  9 36  1  0  0  0  0
 10 11  1  0  0  0  0
 10 37  1  0  0  0  0
 11 12  2  0  0  0  0
 12 13  1  0  0  0  0
 12 38  1  0  0  0  0
 13 14  2  0  0  0  0
 13 39  1  0  0  0  0
 14 15  1  0  0  0  0
 14 40  1  0  0  0  0
 15 16  2  0  0  0  0
 15 41  1  0  0  0  0
 16 11  1  0  0  0  0
 16 42  1  0  0  0  0
 17 18  1  0  0  0  0
 18 19  2  0  0  0  0
 18 22  1  0  0  0  0
 19 20  1  0  0  0  0
 19 43  1  0  0  0  0
 20  6  1  0  0  0  0
 20 21  2  0  0  0  0
 22 23  1  0  0  0  0
 23 24  1  0  0  0  0
 23 44  1  0  0  0  0
 23 45  1  0  0  0  0
 24 25  1  0  0  0  0
 24 46  1  0  0  0  0
 24 47  1  0  0  0  0
 25 26  1  0  0  0  0
 26 27  1  0  0  0  0
 26 48  1  0  0  0  0
 26 49  1  0  0  0  0
 27 22  1  0  0  0  0
 27 50  1  0  0  0  0
 27 51  1  0  0  0  0
M  END
>  <Mol_ID>
95

>  <Formula>
C21H24N4O2

>  <MolWeight>
364.44086

>  <Cat>
S1169

>  <Name>
TGX-221

>  <Synonyms>
N/A

>  <Target>
PI3K

>  <Form>
free base

>  <CAS>
663619-89-4

>  <URL>
http://selleckchem.com/products/TGX-221.html

$$$$
