TH10785
 OpenBabel08302521353D

 41 44  0  0  0  0  0  0  0  0999 V2000
    0.9270    0.3148    0.0437 N   0  0  0  0  0  0  0  0  0  0  0  0
    0.2895    0.0743    1.2738 C   0  0  0  0  0  0  0  0  0  0  0  0
    0.7578    0.7661    2.4002 C   0  0  0  0  0  0  0  0  0  0  0  0
   -0.7446   -0.7827    1.3360 N   0  0  0  0  0  0  0  0  0  0  0  0
    0.0377    0.5542    3.5757 C   0  0  0  0  0  0  0  0  0  0  0  0
    1.8561    1.6635    2.3962 C   0  0  0  0  0  0  0  0  0  0  0  0
   -1.3490   -0.9585    2.5271 C   0  0  0  0  0  0  0  0  0  0  0  0
   -0.9906   -0.2957    3.6448 N   0  0  0  0  0  0  0  0  0  0  0  0
    0.4157    1.2605    4.7142 C   0  0  0  0  0  0  0  0  0  0  0  0
    2.2240    2.3497    3.5505 C   0  0  0  0  0  0  0  0  0  0  0  0
    1.4951    2.1511    4.7106 C   0  0  0  0  0  0  0  0  0  0  0  0
    0.2594   -0.0573   -1.2030 C   0  0  0  0  0  0  0  0  0  0  0  0
    1.2826    0.1642   -2.3368 C   0  0  0  0  0  0  0  0  0  0  0  0
   -0.9831    0.8296   -1.4094 C   0  0  0  0  0  0  0  0  0  0  0  0
    0.6684    0.0630   -3.7280 C   0  0  0  0  0  0  0  0  0  0  0  0
   -1.5704    0.7134   -2.8113 C   0  0  0  0  0  0  0  0  0  0  0  0
   -0.5209    1.0020   -3.8758 C   0  0  0  0  0  0  0  0  0  0  0  0
   -2.4245   -2.0144    2.6561 C   0  0  0  0  0  0  0  0  0  0  0  0
   -3.6502   -2.0269    1.7742 C   0  0  0  0  0  0  0  0  0  0  0  0
   -3.7817   -1.6484    3.2194 C   0  0  0  0  0  0  0  0  0  0  0  0
    1.8928    0.0048    0.1006 H   0  0  0  0  0  0  0  0  0  0  0  0
    2.4197    1.8384    1.4824 H   0  0  0  0  0  0  0  0  0  0  0  0
   -0.1536    1.1187    5.6311 H   0  0  0  0  0  0  0  0  0  0  0  0
    3.0643    3.0375    3.5332 H   0  0  0  0  0  0  0  0  0  0  0  0
    1.7564    2.6878    5.6198 H   0  0  0  0  0  0  0  0  0  0  0  0
   -0.0270   -1.1170   -1.1987 H   0  0  0  0  0  0  0  0  0  0  0  0
    1.7475    1.1543   -2.2281 H   0  0  0  0  0  0  0  0  0  0  0  0
    2.0983   -0.5645   -2.2454 H   0  0  0  0  0  0  0  0  0  0  0  0
   -1.7623    0.5713   -0.6831 H   0  0  0  0  0  0  0  0  0  0  0  0
   -0.7239    1.8797   -1.2171 H   0  0  0  0  0  0  0  0  0  0  0  0
    1.4253    0.3053   -4.4822 H   0  0  0  0  0  0  0  0  0  0  0  0
    0.3491   -0.9699   -3.9138 H   0  0  0  0  0  0  0  0  0  0  0  0
   -2.4053    1.4154   -2.9169 H   0  0  0  0  0  0  0  0  0  0  0  0
   -1.9779   -0.2943   -2.9567 H   0  0  0  0  0  0  0  0  0  0  0  0
   -0.1829    2.0422   -3.7861 H   0  0  0  0  0  0  0  0  0  0  0  0
   -0.9611    0.8921   -4.8725 H   0  0  0  0  0  0  0  0  0  0  0  0
   -2.0398   -2.9895    2.9409 H   0  0  0  0  0  0  0  0  0  0  0  0
   -3.7656   -1.2470    1.0316 H   0  0  0  0  0  0  0  0  0  0  0  0
   -4.0393   -2.9919    1.4688 H   0  0  0  0  0  0  0  0  0  0  0  0
   -4.2419   -2.3529    3.9028 H   0  0  0  0  0  0  0  0  0  0  0  0
   -3.9898   -0.6096    3.4492 H   0  0  0  0  0  0  0  0  0  0  0  0
  1  2  1  0  0  0  0
  1 12  1  0  0  0  0
  1 21  1  0  0  0  0
  2  3  1  0  0  0  0
  2  4  2  0  0  0  0
  3  5  2  0  0  0  0
  3  6  1  0  0  0  0
  4  7  1  0  0  0  0
  5  8  1  0  0  0  0
  5  9  1  0  0  0  0
  6 10  2  0  0  0  0
  6 22  1  0  0  0  0
  7  8  2  0  0  0  0
  7 18  1  0  0  0  0
  9 11  2  0  0  0  0
  9 23  1  0  0  0  0
 10 11  1  0  0  0  0
 10 24  1  0  0  0  0
 11 25  1  0  0  0  0
 12 13  1  0  0  0  0
 12 14  1  0  0  0  0
 12 26  1  0  0  0  0
 13 15  1  0  0  0  0
 13 27  1  0  0  0  0
 13 28  1  0  0  0  0
 14 16  1  0  0  0  0
 14 29  1  0  0  0  0
 14 30  1  0  0  0  0
 15 17  1  0  0  0  0
 15 31  1  0  0  0  0
 15 32  1  0  0  0  0
 16 17  1  0  0  0  0
 16 33  1  0  0  0  0
 16 34  1  0  0  0  0
 17 35  1  0  0  0  0
 17 36  1  0  0  0  0
 18 19  1  0  0  0  0
 18 20  1  0  0  0  0
 18 37  1  0  0  0  0
 19 20  1  0  0  0  0
 19 38  1  0  0  0  0
 19 39  1  0  0  0  0
 20 40  1  0  0  0  0
 20 41  1  0  0  0  0
M  END
>  <Mol_ID>
6841

>  <Formula>
C17H21N3

>  <MolWeight>
267.36874

>  <Cat>
E1277

>  <Name>
TH10785

>  <Target>
OGG1

>  <Form>
Free base

>  <CAS>
1002801-51-5

>  <URL>
http://www.selleckchem.com/products/th10785.html

$$$$
