TH34
 OpenBabel08302521223D

 35 36  0  0  0  0  0  0  0  0999 V2000
   -4.5197    4.3840    2.2454 C   0  0  0  0  0  0  0  0  0  0  0  0
   -5.2490    4.8915    1.1746 C   0  0  0  0  0  0  0  0  0  0  0  0
   -4.7781    4.7280   -0.1254 C   0  0  0  0  0  0  0  0  0  0  0  0
   -3.5709    4.0645   -0.3548 C   0  0  0  0  0  0  0  0  0  0  0  0
   -2.8100    3.5750    0.7205 C   0  0  0  0  0  0  0  0  0  0  0  0
   -3.3111    3.7227    2.0214 C   0  0  0  0  0  0  0  0  0  0  0  0
   -1.4794    2.9020    0.4544 C   0  0  0  0  0  0  0  0  0  0  0  0
   -0.5091    3.1124    1.5319 N   0  0  0  0  0  0  0  0  0  0  0  0
    0.2615    4.2796    1.6018 C   0  0  0  0  0  0  0  0  0  0  0  0
   -0.1968    5.4797    1.0296 C   0  0  0  0  0  0  0  0  0  0  0  0
    0.4855    6.6935    1.1708 C   0  0  0  0  0  0  0  0  0  0  0  0
    1.6669    6.7300    1.9030 C   0  0  0  0  0  0  0  0  0  0  0  0
    2.1390    5.5611    2.4984 C   0  0  0  0  0  0  0  0  0  0  0  0
    1.4503    4.3351    2.3610 C   0  0  0  0  0  0  0  0  0  0  0  0
    2.0783    3.1411    3.0339 C   0  0  0  0  0  0  0  0  0  0  0  0
   -0.0082    7.9310    0.5092 C   0  0  0  0  0  0  0  0  0  0  0  0
   -1.3528    7.9837    0.2147 N   0  0  0  0  0  0  0  0  0  0  0  0
    0.7514    8.8564    0.2437 O   0  0  0  0  0  0  0  0  0  0  0  0
   -1.8084    9.1690   -0.4048 O   0  0  0  0  0  0  0  0  0  0  0  0
   -4.8845    4.5104    3.2603 H   0  0  0  0  0  0  0  0  0  0  0  0
   -6.1841    5.4162    1.3539 H   0  0  0  0  0  0  0  0  0  0  0  0
   -5.3521    5.1182   -0.9629 H   0  0  0  0  0  0  0  0  0  0  0  0
   -3.2160    3.9526   -1.3771 H   0  0  0  0  0  0  0  0  0  0  0  0
   -2.7453    3.3441    2.8715 H   0  0  0  0  0  0  0  0  0  0  0  0
   -1.6639    1.8259    0.3550 H   0  0  0  0  0  0  0  0  0  0  0  0
   -1.0532    3.2359   -0.5009 H   0  0  0  0  0  0  0  0  0  0  0  0
    0.0035    2.2651    1.7391 H   0  0  0  0  0  0  0  0  0  0  0  0
   -1.1020    5.4718    0.4374 H   0  0  0  0  0  0  0  0  0  0  0  0
    2.2199    7.6599    2.0156 H   0  0  0  0  0  0  0  0  0  0  0  0
    3.0612    5.6031    3.0767 H   0  0  0  0  0  0  0  0  0  0  0  0
    3.1057    3.0176    2.6728 H   0  0  0  0  0  0  0  0  0  0  0  0
    2.0994    3.2888    4.1191 H   0  0  0  0  0  0  0  0  0  0  0  0
    1.5649    2.1987    2.8408 H   0  0  0  0  0  0  0  0  0  0  0  0
   -2.0617    7.3630    0.5933 H   0  0  0  0  0  0  0  0  0  0  0  0
   -0.9711    9.6678   -0.5282 H   0  0  0  0  0  0  0  0  0  0  0  0
  1  2  2  0  0  0  0
  1 20  1  0  0  0  0
  2  3  1  0  0  0  0
  2 21  1  0  0  0  0
  3  4  2  0  0  0  0
  3 22  1  0  0  0  0
  4  5  1  0  0  0  0
  4 23  1  0  0  0  0
  5  6  2  0  0  0  0
  5  7  1  0  0  0  0
  6  1  1  0  0  0  0
  6 24  1  0  0  0  0
  7  8  1  0  0  0  0
  7 25  1  0  0  0  0
  7 26  1  0  0  0  0
  8  9  1  0  0  0  0
  8 27  1  0  0  0  0
  9 10  2  0  0  0  0
 10 11  1  0  0  0  0
 10 28  1  0  0  0  0
 11 12  2  0  0  0  0
 11 16  1  0  0  0  0
 12 13  1  0  0  0  0
 12 29  1  0  0  0  0
 13 14  2  0  0  0  0
 13 30  1  0  0  0  0
 14  9  1  0  0  0  0
 14 15  1  0  0  0  0
 15 31  1  0  0  0  0
 15 32  1  0  0  0  0
 15 33  1  0  0  0  0
 16 17  1  0  0  0  0
 16 18  2  0  0  0  0
 17 19  1  0  0  0  0
 17 34  1  0  0  0  0
 19 35  1  0  0  0  0
M  END
>  <Mol_ID>
4599

>  <Formula>
C15H16N2O2

>  <MolWeight>
256.29974

>  <Cat>
S8773

>  <Name>
TH34

>  <Synonyms>
N/A

>  <Target>
HDAC

>  <Form>
Free Base

>  <CAS>
2196203-96-8

>  <URL>
http://www.selleckchem.com/products/th34.html

$$$$
