Thalidomide.cdx
 OpenBabel08302521453D

 29 31  0  0  0  0  0  0  0  0999 V2000
    1.0419    1.1263   -0.2103 C   0  0  0  0  0  0  0  0  0  0  0  0
    1.8457    0.0241   -0.1143 N   0  0  0  0  0  0  0  0  0  0  0  0
    1.1038   -1.1235   -0.0157 C   0  0  0  0  0  0  0  0  0  0  0  0
   -0.3022   -0.7180   -0.0256 C   0  0  0  0  0  0  0  0  0  0  0  0
   -1.4589   -1.4667    0.0584 C   0  0  0  0  0  0  0  0  0  0  0  0
   -2.6727   -0.7693    0.0567 C   0  0  0  0  0  0  0  0  0  0  0  0
   -2.7002    0.6389   -0.0257 C   0  0  0  0  0  0  0  0  0  0  0  0
   -1.5156    1.3719   -0.1212 C   0  0  0  0  0  0  0  0  0  0  0  0
   -0.3348    0.6594   -0.1204 C   0  0  0  0  0  0  0  0  0  0  0  0
    1.3531    2.2905   -0.3745 O   0  0  0  0  0  0  0  0  0  0  0  0
    1.4813   -2.2739    0.0999 O   0  0  0  0  0  0  0  0  0  0  0  0
    4.3896    1.8675   -1.3930 N   0  0  0  0  0  0  0  0  0  0  0  0
    3.7787    0.6382   -1.4584 C   0  0  0  0  0  0  0  0  0  0  0  0
    3.3027    0.0368   -0.1401 C   0  0  3  0  0  0  0  0  0  0  0  0
    3.9726    0.6776    1.0744 C   0  0  0  0  0  0  0  0  0  0  0  0
    4.0118    2.1947    1.0196 C   0  0  0  0  0  0  0  0  0  0  0  0
    4.4863    2.7135   -0.3169 C   0  0  0  0  0  0  0  0  0  0  0  0
    4.9168    3.8562   -0.4558 O   0  0  0  0  0  0  0  0  0  0  0  0
    3.5509    0.1119   -2.5471 O   0  0  0  0  0  0  0  0  0  0  0  0
   -1.4258   -2.5493    0.1247 H   0  0  0  0  0  0  0  0  0  0  0  0
   -3.6105   -1.3183    0.1226 H   0  0  0  0  0  0  0  0  0  0  0  0
   -3.6567    1.1591   -0.0170 H   0  0  0  0  0  0  0  0  0  0  0  0
   -1.5186    2.4562   -0.1866 H   0  0  0  0  0  0  0  0  0  0  0  0
    4.6414    2.2764   -2.2824 H   0  0  0  0  0  0  0  0  0  0  0  0
    3.6380   -1.0096   -0.1572 H   0  0  0  0  0  0  0  0  0  0  0  0
    5.0118    0.3226    1.1152 H   0  0  0  0  0  0  0  0  0  0  0  0
    3.4915    0.3482    2.0025 H   0  0  0  0  0  0  0  0  0  0  0  0
    4.7051    2.5589    1.7864 H   0  0  0  0  0  0  0  0  0  0  0  0
    3.0358    2.6295    1.2477 H   0  0  0  0  0  0  0  0  0  0  0  0
  1  2  1  0  0  0  0
  1  9  1  0  0  0  0
  1 10  2  0  0  0  0
  2  3  1  0  0  0  0
  2 14  1  0  0  0  0
  3  4  1  0  0  0  0
  3 11  2  0  0  0  0
  4  5  2  0  0  0  0
  4  9  1  0  0  0  0
  5  6  1  0  0  0  0
  5 20  1  0  0  0  0
  6  7  2  0  0  0  0
  6 21  1  0  0  0  0
  7  8  1  0  0  0  0
  7 22  1  0  0  0  0
  8  9  2  0  0  0  0
  8 23  1  0  0  0  0
 12 13  1  0  0  0  0
 12 17  1  0  0  0  0
 12 24  1  0  0  0  0
 13 14  1  0  0  0  0
 13 19  2  0  0  0  0
 14 15  1  0  0  0  0
 14 25  1  0  0  0  0
 15 16  1  0  0  0  0
 15 26  1  0  0  0  0
 15 27  1  0  0  0  0
 16 17  1  0  0  0  0
 16 28  1  0  0  0  0
 16 29  1  0  0  0  0
 17 18  2  0  0  0  0
M  END
>  <Mol_ID>
967

>  <Formula>
C13H10N2O4

>  <MolWeight>
258.2295

>  <Cat>
S1193

>  <Name>
Thalidomide (K17)

>  <Synonyms>
K17

>  <Target>
E3 Ligase ,E3 ligase Ligand,TNF-alpha

>  <Form>
free base

>  <CAS>
50-35-1

>  <URL>
http://selleckchem.com/products/Thalidomide.html

$$$$
