THIOGUANINE (thioguanine).cdx
 OpenBabel08302521203D

 16 17  0  0  0  0  0  0  0  0999 V2000
    2.1818    0.6611    0.0746 N   0  0  0  0  0  0  0  0  0  0  0  0
    2.0634   -0.6355    0.0829 C   0  0  0  0  0  0  0  0  0  0  0  0
    0.9161   -1.3744    0.0032 N   0  0  0  0  0  0  0  0  0  0  0  0
   -0.2152   -0.6714   -0.0141 C   0  0  0  0  0  0  0  0  0  0  0  0
   -0.1840    0.6940   -0.0240 C   0  0  0  0  0  0  0  0  0  0  0  0
    1.0376    1.4372   -0.0039 C   0  0  0  0  0  0  0  0  0  0  0  0
   -1.4733   -1.1729   -0.0053 N   0  0  0  0  0  0  0  0  0  0  0  0
   -2.2405   -0.1005   -0.0204 C   0  0  0  0  0  0  0  0  0  0  0  0
   -1.5033    1.0581   -0.0333 N   0  0  0  0  0  0  0  0  0  0  0  0
    3.1798   -1.4036    0.1804 N   0  0  0  0  0  0  0  0  0  0  0  0
    0.9856    3.1071   -0.0598 S   0  0  0  0  0  0  0  0  0  0  0  0
    0.9187   -2.3655    0.1869 H   0  0  0  0  0  0  0  0  0  0  0  0
   -3.3231   -0.0964   -0.0173 H   0  0  0  0  0  0  0  0  0  0  0  0
   -1.8628    2.0036   -0.0345 H   0  0  0  0  0  0  0  0  0  0  0  0
    3.1893   -2.2254   -0.4093 H   0  0  0  0  0  0  0  0  0  0  0  0
    4.0197   -0.8457    0.0554 H   0  0  0  0  0  0  0  0  0  0  0  0
  1  2  2  0  0  0  0
  2  3  1  0  0  0  0
  2 10  1  0  0  0  0
  3  4  1  0  0  0  0
  3 12  1  0  0  0  0
  4  5  2  0  0  0  0
  4  7  1  0  0  0  0
  5  6  1  0  0  0  0
  6  1  1  0  0  0  0
  6 11  2  0  0  0  0
  7  8  2  0  0  0  0
  8  9  1  0  0  0  0
  8 13  1  0  0  0  0
  9  5  1  0  0  0  0
  9 14  1  0  0  0  0
 10 15  1  0  0  0  0
 10 16  1  0  0  0  0
M  END
>  <Mol_ID>
434

>  <Formula>
C5H5N5S

>  <MolWeight>
167.1917

>  <Cat>
S1774

>  <Name>
Thioguanine (NSC 752)

>  <Synonyms>
NSC 752,6-Thioguanine, 2-Amino-6-purinethiol

>  <Target>
DNA Methyltransferase

>  <Form>
free base

>  <CAS>
154-42-7

>  <URL>
http://selleckchem.com/products/Thioguanine.html

$$$$
