Thioacetamide
 OpenBabel08302521313D

  9  8  0  0  0  0  0  0  0  0999 V2000
    0.9689   -0.0183    0.0716 S   0  0  0  0  0  0  0  0  0  0  0  0
    3.3521    1.0101    0.4999 N   0  0  0  0  0  0  0  0  0  0  0  0
    3.4112   -1.2430   -0.4386 C   0  0  0  0  0  0  0  0  0  0  0  0
    2.6326   -0.0558    0.0559 C   0  0  0  0  0  0  0  0  0  0  0  0
    4.3642    1.0326    0.5093 H   0  0  0  0  0  0  0  0  0  0  0  0
    2.8598    1.8282    0.8407 H   0  0  0  0  0  0  0  0  0  0  0  0
    3.1623   -2.1266    0.1577 H   0  0  0  0  0  0  0  0  0  0  0  0
    3.1623   -1.4420   -1.4858 H   0  0  0  0  0  0  0  0  0  0  0  0
    4.4887   -1.0691   -0.3661 H   0  0  0  0  0  0  0  0  0  0  0  0
  1  4  2  0  0  0  0
  2  4  1  0  0  0  0
  2  5  1  0  0  0  0
  2  6  1  0  0  0  0
  3  4  1  0  0  0  0
  3  7  1  0  0  0  0
  3  8  1  0  0  0  0
  3  9  1  0  0  0  0
M  END
>  <Mol_ID>
6092

>  <Formula>
C2H5NS

>  <MolWeight>
75.1328

>  <Cat>
E0156

>  <Name>
Thioacetamide

>  <Synonyms>
TAA

>  <Target>
Others

>  <Form>
Free Base

>  <CAS>
62-55-5

>  <URL>
http://www.selleckchem.com/products/thioacetamide.html

$$$$
