Thymidine 5'-monophosphate disodium salt
 OpenBabel08302521383D

 34 35  0  0  0  0  0  0  0  0999 V2000
    3.1105   -0.0439    1.1877 P   0  0  0  0  0  0  0  0  0  0  0  0
   -0.0493   -3.1221    1.5007 O   0  0  0  0  0  0  0  0  0  0  0  0
   -2.5044   -1.9747    3.1223 O   0  0  0  0  0  0  0  0  0  0  0  0
    1.7120   -0.8928    1.0719 O   0  0  0  0  0  0  0  0  0  0  0  0
   -1.6596   -6.6520    2.6630 O   0  0  0  0  0  0  0  0  0  0  0  0
    2.3594   -8.6594    2.8143 O   0  0  0  0  0  0  0  0  0  0  0  0
    3.9135   -0.8357    2.2164 O   0  5  0  0  0  0  0  0  0  0  0  0
    2.6461    1.3223    1.6713 O   0  5  0  0  0  0  0  0  0  0  0  0
    3.6679   -0.0722   -0.2242 O   0  0  0  0  0  0  0  0  0  0  0  0
    0.2121   -5.3006    2.4256 N   0  0  0  0  0  0  0  0  0  0  0  0
    0.3616   -7.6219    2.5811 N   0  0  0  0  0  0  0  0  0  0  0  0
   -1.0833   -2.0033    3.3414 C   0  0  2  0  0  0  0  0  0  0  0  0
   -0.2862   -1.7972    2.0431 C   0  0  1  0  0  0  0  0  0  0  0  0
   -0.5992   -4.0911    2.3952 C   0  0  1  0  0  0  0  0  0  0  0  0
   -0.7281   -3.4142    3.7495 C   0  0  0  0  0  0  0  0  0  0  0  0
    1.0237   -1.0539    2.2961 C   0  0  0  0  0  0  0  0  0  0  0  0
    1.5934   -5.2182    2.4066 C   0  0  0  0  0  0  0  0  0  0  0  0
   -0.4405   -6.5144    2.5555 C   0  0  0  0  0  0  0  0  0  0  0  0
    2.3787   -6.2990    2.5223 C   0  0  0  0  0  0  0  0  0  0  0  0
    1.7258   -7.6208    2.6449 C   0  0  0  0  0  0  0  0  0  0  0  0
    3.8697   -6.2511    2.5460 C   0  0  0  0  0  0  0  0  0  0  0  0
   -2.6549   -1.7543    2.1859 H   0  0  0  0  0  0  0  0  0  0  0  0
   -0.1013   -8.5077    2.6877 H   0  0  0  0  0  0  0  0  0  0  0  0
   -0.8604   -1.2672    4.1188 H   0  0  0  0  0  0  0  0  0  0  0  0
   -0.8631   -1.2558    1.2878 H   0  0  0  0  0  0  0  0  0  0  0  0
   -1.5947   -4.3334    2.0039 H   0  0  0  0  0  0  0  0  0  0  0  0
    0.2267   -3.4245    4.2881 H   0  0  0  0  0  0  0  0  0  0  0  0
   -1.4833   -3.9068    4.3703 H   0  0  0  0  0  0  0  0  0  0  0  0
    1.6520   -1.6044    3.0019 H   0  0  0  0  0  0  0  0  0  0  0  0
    0.7961   -0.0666    2.7156 H   0  0  0  0  0  0  0  0  0  0  0  0
    2.0259   -4.2210    2.3027 H   0  0  0  0  0  0  0  0  0  0  0  0
    4.2481   -6.6290    3.5039 H   0  0  0  0  0  0  0  0  0  0  0  0
    4.2894   -6.8658    1.7430 H   0  0  0  0  0  0  0  0  0  0  0  0
    4.2464   -5.2320    2.4175 H   0  0  0  0  0  0  0  0  0  0  0  0
  1  4  1  0  0  0  0
  1  7  1  0  0  0  0
  1  8  1  0  0  0  0
  1  9  2  0  0  0  0
  2 13  1  0  0  0  0
  2 14  1  0  0  0  0
  3 22  1  0  0  0  0
  4 16  1  0  0  0  0
  5 18  2  0  0  0  0
  6 20  2  0  0  0  0
 10 17  1  0  0  0  0
 10 18  1  0  0  0  0
 11 18  1  0  0  0  0
 11 20  1  0  0  0  0
 11 23  1  0  0  0  0
 12  3  1  0  0  0  0
 12 13  1  0  0  0  0
 12 15  1  0  0  0  0
 12 24  1  1  0  0  0
 13 16  1  0  0  0  0
 13 25  1  6  0  0  0
 14 15  1  0  0  0  0
 14 26  1  6  0  0  0
 14 10  1  0  0  0  0
 15 27  1  0  0  0  0
 15 28  1  0  0  0  0
 16 29  1  0  0  0  0
 16 30  1  0  0  0  0
 17 19  2  0  0  0  0
 17 31  1  0  0  0  0
 19 20  1  0  0  0  0
 19 21  1  0  0  0  0
 21 32  1  0  0  0  0
 21 33  1  0  0  0  0
 21 34  1  0  0  0  0
M  CHG  2   7  -1   8  -1
M  END
>  <Mol_ID>
7964

>  <Formula>
C10H13N2Na2O8P

>  <MolWeight>
366.172121

>  <Cat>
S3221

>  <Name>
Thymidine 5'-monophosphate disodium salt

>  <Synonyms>
5'-Thymidylic acid disodium salt

>  <Target>
Others

>  <Form>
Disodium salt

>  <CAS>
33430-62-5

>  <URL>
https://www.selleckchem.com/products/thymidine-5-monophosphate-disodium-salt.html

$$$$
