Ticlopidine hydrochloride.cdx
 OpenBabel08302521383D

 31 33  0  0  0  0  0  0  0  0999 V2000
    0.1681   -0.5516   -0.0914 C   0  0  0  0  0  0  0  0  0  0  0  0
   -0.0900    0.8036   -0.0577 C   0  0  0  0  0  0  0  0  0  0  0  0
   -1.4842    1.3630    0.0384 C   0  0  0  0  0  0  0  0  0  0  0  0
   -2.4947    0.3401   -0.3297 N   0  0  0  0  0  0  0  0  0  0  0  0
   -2.2323   -0.9441    0.3624 C   0  0  0  0  0  0  0  0  0  0  0  0
   -0.9042   -1.5886   -0.0953 C   0  0  0  0  0  0  0  0  0  0  0  0
   -3.8550    0.8181   -0.0100 C   0  0  0  0  0  0  0  0  0  0  0  0
   -4.2744    2.0391   -0.8033 C   0  0  0  0  0  0  0  0  0  0  0  0
   -4.2925    2.0101   -2.2046 C   0  0  0  0  0  0  0  0  0  0  0  0
   -4.6547    3.2212   -0.1484 C   0  0  0  0  0  0  0  0  0  0  0  0
   -5.0149    4.3548   -0.8812 C   0  0  0  0  0  0  0  0  0  0  0  0
   -5.0034    4.3181   -2.2742 C   0  0  0  0  0  0  0  0  0  0  0  0
   -4.6484    3.1442   -2.9358 C   0  0  0  0  0  0  0  0  0  0  0  0
    1.8227   -0.9215   -0.1488 S   0  0  0  0  0  0  0  0  0  0  0  0
    2.2404    0.7392   -0.1130 C   0  0  0  0  0  0  0  0  0  0  0  0
    1.1275    1.5531   -0.0767 C   0  0  0  0  0  0  0  0  0  0  0  0
   -1.5568    2.2237   -0.6358 H   0  0  0  0  0  0  0  0  0  0  0  0
   -1.6403    1.7160    1.0672 H   0  0  0  0  0  0  0  0  0  0  0  0
   -2.2112   -0.7889    1.4505 H   0  0  0  0  0  0  0  0  0  0  0  0
   -3.0361   -1.6605    0.1553 H   0  0  0  0  0  0  0  0  0  0  0  0
   -0.6526   -2.4221    0.5696 H   0  0  0  0  0  0  0  0  0  0  0  0
   -1.0186   -1.9872   -1.1108 H   0  0  0  0  0  0  0  0  0  0  0  0
   -4.5865    0.0313   -0.2362 H   0  0  0  0  0  0  0  0  0  0  0  0
   -3.9436    1.0182    1.0663 H   0  0  0  0  0  0  0  0  0  0  0  0
   -4.0088    1.0997   -2.7308 H   0  0  0  0  0  0  0  0  0  0  0  0
   -4.6673    3.2703    0.9372 H   0  0  0  0  0  0  0  0  0  0  0  0
   -5.3003    5.2678   -0.3652 H   0  0  0  0  0  0  0  0  0  0  0  0
   -5.2704    5.2040   -2.8446 H   0  0  0  0  0  0  0  0  0  0  0  0
   -4.6410    3.1128   -4.0221 H   0  0  0  0  0  0  0  0  0  0  0  0
    3.2796    1.0379   -0.1209 H   0  0  0  0  0  0  0  0  0  0  0  0
    1.1846    2.6344   -0.0522 H   0  0  0  0  0  0  0  0  0  0  0  0
  1  2  2  0  0  0  0
  1 14  1  0  0  0  0
  2  3  1  0  0  0  0
  3  4  1  0  0  0  0
  3 17  1  0  0  0  0
  3 18  1  0  0  0  0
  4  5  1  0  0  0  0
  4  7  1  0  0  0  0
  5  6  1  0  0  0  0
  5 19  1  0  0  0  0
  5 20  1  0  0  0  0
  6  1  1  0  0  0  0
  6 21  1  0  0  0  0
  6 22  1  0  0  0  0
  7  8  1  0  0  0  0
  7 23  1  0  0  0  0
  7 24  1  0  0  0  0
  8  9  2  0  0  0  0
  8 10  1  0  0  0  0
  9 25  1  0  0  0  0
 10 11  2  0  0  0  0
 10 26  1  0  0  0  0
 11 12  1  0  0  0  0
 11 27  1  0  0  0  0
 12 13  2  0  0  0  0
 12 28  1  0  0  0  0
 13  9  1  0  0  0  0
 13 29  1  0  0  0  0
 14 15  1  0  0  0  0
 15 16  2  0  0  0  0
 15 30  1  0  0  0  0
 16  2  1  0  0  0  0
 16 31  1  0  0  0  0
M  END
>  <Mol_ID>
7711

>  <Formula>
C14H15Cl2NS

>  <MolWeight>
300.2466

>  <Cat>
S1984

>  <Name>
Ticlopidine HCl

>  <Synonyms>
N/A

>  <Target>
P2 Receptor

>  <Form>
Hydrochloride

>  <CAS>
53885-35-1

>  <URL>
http://selleckchem.com/products/ticlopidine-hydrochloride.html

$$$$
