Timolol Maleate.cdx
 OpenBabel08302522043D

 57 57  0  0  0  0  0  0  0  0999 V2000
    7.3274    2.7514   -5.9551 C   0  0  0  0  0  0  0  0  0  0  0  0
    6.1177    2.8066   -5.1221 C   0  0  0  0  0  0  0  0  0  0  0  0
    7.7337    1.8213   -6.8905 N   0  0  0  0  0  0  0  0  0  0  0  0
    8.1366    3.7899   -5.6771 N   0  0  0  0  0  0  0  0  0  0  0  0
    4.9620    2.0831   -5.2375 O   0  0  0  0  0  0  0  0  0  0  0  0
    6.1749    3.6811   -4.1060 N   0  0  0  0  0  0  0  0  0  0  0  0
    6.9082    0.7933   -7.5248 C   0  0  0  0  0  0  0  0  0  0  0  0
    8.9805    2.1246   -7.6258 C   0  0  0  0  0  0  0  0  0  0  0  0
    7.5495    4.5617   -4.3482 S   0  0  0  0  0  0  0  0  0  0  0  0
    3.8714    2.7094   -4.5361 C   0  0  0  0  0  0  0  0  0  0  0  0
    7.7759   -0.4562   -7.8004 C   0  0  0  0  0  0  0  0  0  0  0  0
    9.7335    0.8793   -8.0997 C   0  0  0  0  0  0  0  0  0  0  0  0
    2.4824    2.2572   -4.9941 C   0  0  2  0  0  0  0  0  0  0  0  0
    8.9110   -0.1615   -8.6259 O   0  0  0  0  0  0  0  0  0  0  0  0
    2.1782    2.2144   -6.5290 C   0  0  0  0  0  0  0  0  0  0  0  0
    1.4699    3.0067   -4.2900 O   0  0  0  0  0  0  0  0  0  0  0  0
    2.6967    3.2732   -7.4070 N   0  0  0  0  0  0  0  0  0  0  0  0
    2.1862    3.3402   -8.8074 C   0  0  0  0  0  0  0  0  0  0  0  0
    0.8327    2.6588   -9.1076 C   0  0  0  0  0  0  0  0  0  0  0  0
    2.0355    4.8306   -9.1905 C   0  0  0  0  0  0  0  0  0  0  0  0
    3.2311    2.7262   -9.7631 C   0  0  0  0  0  0  0  0  0  0  0  0
    0.0130    0.1366   -0.0048 C   0  0  0  0  0  0  0  0  0  0  0  0
   -0.5728    0.2081   -1.2029 C   0  0  0  0  0  0  0  0  0  0  0  0
   -0.5080    0.2567    1.3698 C   0  0  0  0  0  0  0  0  0  0  0  0
   -1.9615    0.4205   -1.6641 C   0  0  0  0  0  0  0  0  0  0  0  0
   -1.7701    0.7028    1.4314 O   0  0  0  0  0  0  0  0  0  0  0  0
    0.1346    0.0101    2.3614 O   0  0  0  0  0  0  0  0  0  0  0  0
   -2.8014    0.9968   -0.8000 O   0  0  0  0  0  0  0  0  0  0  0  0
   -2.2827    0.1193   -2.8044 O   0  0  0  0  0  0  0  0  0  0  0  0
    6.5372    1.1707   -8.4869 H   0  0  0  0  0  0  0  0  0  0  0  0
    6.0478    0.4969   -6.9199 H   0  0  0  0  0  0  0  0  0  0  0  0
    8.7419    2.7721   -8.4772 H   0  0  0  0  0  0  0  0  0  0  0  0
    9.6951    2.6681   -6.9954 H   0  0  0  0  0  0  0  0  0  0  0  0
    3.9630    2.4816   -3.4604 H   0  0  0  0  0  0  0  0  0  0  0  0
    3.8987    3.8061   -4.6248 H   0  0  0  0  0  0  0  0  0  0  0  0
    8.1026   -0.9316   -6.8670 H   0  0  0  0  0  0  0  0  0  0  0  0
    7.1895   -1.1964   -8.3556 H   0  0  0  0  0  0  0  0  0  0  0  0
   10.4063    1.1866   -8.9095 H   0  0  0  0  0  0  0  0  0  0  0  0
   10.3745    0.4881   -7.2998 H   0  0  0  0  0  0  0  0  0  0  0  0
    2.3550    1.2281   -4.6377 H   0  0  0  0  0  0  0  0  0  0  0  0
    2.5777    1.2648   -6.8982 H   0  0  0  0  0  0  0  0  0  0  0  0
    1.0861    2.1848   -6.6045 H   0  0  0  0  0  0  0  0  0  0  0  0
    1.7535    3.9331   -4.2042 H   0  0  0  0  0  0  0  0  0  0  0  0
    2.6904    4.1856   -6.9604 H   0  0  0  0  0  0  0  0  0  0  0  0
    0.0092    3.1228   -8.5547 H   0  0  0  0  0  0  0  0  0  0  0  0
    0.5871    2.7457  -10.1760 H   0  0  0  0  0  0  0  0  0  0  0  0
    0.8489    1.5877   -8.8804 H   0  0  0  0  0  0  0  0  0  0  0  0
    2.9478    5.3964   -8.9736 H   0  0  0  0  0  0  0  0  0  0  0  0
    1.8324    4.9471  -10.2635 H   0  0  0  0  0  0  0  0  0  0  0  0
    1.2045    5.3000   -8.6515 H   0  0  0  0  0  0  0  0  0  0  0  0
    4.2423    3.0876   -9.5492 H   0  0  0  0  0  0  0  0  0  0  0  0
    3.2362    1.6322   -9.7129 H   0  0  0  0  0  0  0  0  0  0  0  0
    3.0122    2.9976  -10.8062 H   0  0  0  0  0  0  0  0  0  0  0  0
    1.0768   -0.0829    0.0114 H   0  0  0  0  0  0  0  0  0  0  0  0
    0.0620    0.0259   -2.0607 H   0  0  0  0  0  0  0  0  0  0  0  0
   -1.9453    0.7040    2.4028 H   0  0  0  0  0  0  0  0  0  0  0  0
   -2.4328    1.1012    0.1048 H   0  0  0  0  0  0  0  0  0  0  0  0
  1  2  1  0  0  0  0
  1  3  1  0  0  0  0
  1  4  2  0  0  0  0
  2  5  1  0  0  0  0
  2  6  2  0  0  0  0
  3  8  1  0  0  0  0
  3  7  1  0  0  0  0
  4  9  1  0  0  0  0
  5 10  1  0  0  0  0
  6  9  1  0  0  0  0
  7 11  1  0  0  0  0
  7 30  1  0  0  0  0
  7 31  1  0  0  0  0
  8 12  1  0  0  0  0
  8 32  1  0  0  0  0
  8 33  1  0  0  0  0
 10 34  1  0  0  0  0
 10 35  1  0  0  0  0
 11 14  1  0  0  0  0
 11 36  1  0  0  0  0
 11 37  1  0  0  0  0
 12 14  1  0  0  0  0
 12 38  1  0  0  0  0
 12 39  1  0  0  0  0
 13 16  1  0  0  0  0
 13 40  1  1  0  0  0
 13 15  1  0  0  0  0
 13 10  1  0  0  0  0
 15 17  1  0  0  0  0
 15 41  1  0  0  0  0
 15 42  1  0  0  0  0
 16 43  1  0  0  0  0
 17 18  1  0  0  0  0
 17 44  1  0  0  0  0
 18 19  1  0  0  0  0
 18 20  1  0  0  0  0
 18 21  1  0  0  0  0
 19 45  1  0  0  0  0
 19 46  1  0  0  0  0
 19 47  1  0  0  0  0
 20 48  1  0  0  0  0
 20 49  1  0  0  0  0
 20 50  1  0  0  0  0
 21 51  1  0  0  0  0
 21 52  1  0  0  0  0
 21 53  1  0  0  0  0
 22 23  2  0  0  0  0
 22 24  1  0  0  0  0
 22 54  1  0  0  0  0
 23 25  1  0  0  0  0
 23 55  1  0  0  0  0
 24 26  1  0  0  0  0
 24 27  2  0  0  0  0
 25 28  1  0  0  0  0
 25 29  2  0  0  0  0
 26 56  1  0  0  0  0
 28 57  1  0  0  0  0
M  END
>  <Mol_ID>
1258

>  <Formula>
C17H28N4O7S

>  <MolWeight>
432.49182

>  <Cat>
S4123

>  <Name>
Timolol Maleate

>  <Synonyms>
MK-950,(S)-Timolol Maleate

>  <Target>
Adrenergic Receptor

>  <Form>
Maleate

>  <CAS>
26921-17-5

>  <URL>
http://selleckchem.com/products/timolol-maleate.html

$$$$
