Tinostamustine(EDO-S101)
 OpenBabel08302521223D

 55 56  0  0  0  0  0  0  0  0999 V2000
    2.1172    1.2657    0.1152 C   0  0  0  0  0  0  0  0  0  0  0  0
    2.5569   -0.0717    0.0715 C   0  0  0  0  0  0  0  0  0  0  0  0
    1.5644   -1.0696    0.0955 C   0  0  0  0  0  0  0  0  0  0  0  0
    0.2009   -0.7309    0.1457 C   0  0  0  0  0  0  0  0  0  0  0  0
   -0.1712    0.6044    0.1542 C   0  0  0  0  0  0  0  0  0  0  0  0
    0.7634    1.6379    0.1529 C   0  0  0  0  0  0  0  0  0  0  0  0
   -0.9028   -1.5453    0.1782 N   0  0  0  0  0  0  0  0  0  0  0  0
   -1.9476   -0.7405    0.1561 C   0  0  0  0  0  0  0  0  0  0  0  0
   -1.5467    0.5768    0.1364 N   0  0  0  0  0  0  0  0  0  0  0  0
   -2.3749    1.7523    0.0189 C   0  0  0  0  0  0  0  0  0  0  0  0
   -3.3636   -1.2054    0.0804 C   0  0  0  0  0  0  0  0  0  0  0  0
    3.9123   -0.3883    0.0237 N   0  0  0  0  0  0  0  0  0  0  0  0
    4.4016   -1.5729   -0.6896 C   0  0  0  0  0  0  0  0  0  0  0  0
    4.9012    0.4409    0.7191 C   0  0  0  0  0  0  0  0  0  0  0  0
    4.7440    0.3094    2.2286 C   0  0  0  0  0  0  0  0  0  0  0  0
    4.6229   -1.2599   -2.1626 C   0  0  0  0  0  0  0  0  0  0  0  0
   -3.7802   -1.3972   -1.3808 C   0  0  0  0  0  0  0  0  0  0  0  0
   -5.2316   -1.8593   -1.4931 C   0  0  0  0  0  0  0  0  0  0  0  0
   -5.6546   -2.0272   -2.9557 C   0  0  0  0  0  0  0  0  0  0  0  0
   -7.0927   -2.5344   -3.1146 C   0  0  0  0  0  0  0  0  0  0  0  0
   -8.1333   -1.5865   -2.5197 C   0  0  0  0  0  0  0  0  0  0  0  0
   -9.5580   -2.0445   -2.7372 C   0  0  0  0  0  0  0  0  0  0  0  0
  -10.4198   -1.3357   -3.2543 O   0  0  0  0  0  0  0  0  0  0  0  0
   -9.8457   -3.2921   -2.2392 N   0  0  0  0  0  0  0  0  0  0  0  0
  -11.2064   -3.6591   -2.2375 O   0  0  0  0  0  0  0  0  0  0  0  0
    2.8406    2.0759    0.0868 H   0  0  0  0  0  0  0  0  0  0  0  0
    1.8089   -2.1227    0.1125 H   0  0  0  0  0  0  0  0  0  0  0  0
    0.4734    2.6817    0.1653 H   0  0  0  0  0  0  0  0  0  0  0  0
   -2.1683    2.4099    0.8671 H   0  0  0  0  0  0  0  0  0  0  0  0
   -2.1243    2.2525   -0.9210 H   0  0  0  0  0  0  0  0  0  0  0  0
   -3.4321    1.4874    0.0123 H   0  0  0  0  0  0  0  0  0  0  0  0
   -3.4523   -2.1594    0.6158 H   0  0  0  0  0  0  0  0  0  0  0  0
   -4.0372   -0.5083    0.5903 H   0  0  0  0  0  0  0  0  0  0  0  0
    5.3525   -1.9049   -0.2546 H   0  0  0  0  0  0  0  0  0  0  0  0
    3.7314   -2.4315   -0.5942 H   0  0  0  0  0  0  0  0  0  0  0  0
    5.9165    0.1255    0.4501 H   0  0  0  0  0  0  0  0  0  0  0  0
    4.8391    1.4906    0.4142 H   0  0  0  0  0  0  0  0  0  0  0  0
    4.8487   -0.7349    2.5416 H   0  0  0  0  0  0  0  0  0  0  0  0
    5.5064    0.9010    2.7438 H   0  0  0  0  0  0  0  0  0  0  0  0
    3.7631    0.6606    2.5656 H   0  0  0  0  0  0  0  0  0  0  0  0
    5.3876   -0.4864   -2.2909 H   0  0  0  0  0  0  0  0  0  0  0  0
    4.9590   -2.1573   -2.6932 H   0  0  0  0  0  0  0  0  0  0  0  0
    3.7038   -0.9073   -2.6418 H   0  0  0  0  0  0  0  0  0  0  0  0
   -3.6527   -0.4552   -1.9295 H   0  0  0  0  0  0  0  0  0  0  0  0
   -3.1200   -2.1320   -1.8594 H   0  0  0  0  0  0  0  0  0  0  0  0
   -5.3591   -2.8099   -0.9618 H   0  0  0  0  0  0  0  0  0  0  0  0
   -5.8699   -1.1195   -0.9990 H   0  0  0  0  0  0  0  0  0  0  0  0
   -5.5419   -1.0737   -3.4858 H   0  0  0  0  0  0  0  0  0  0  0  0
   -4.9807   -2.7412   -3.4455 H   0  0  0  0  0  0  0  0  0  0  0  0
   -7.3002   -2.6715   -4.1834 H   0  0  0  0  0  0  0  0  0  0  0  0
   -7.1733   -3.5272   -2.6572 H   0  0  0  0  0  0  0  0  0  0  0  0
   -7.9989   -1.4824   -1.4373 H   0  0  0  0  0  0  0  0  0  0  0  0
   -8.0246   -0.5901   -2.9619 H   0  0  0  0  0  0  0  0  0  0  0  0
   -9.2527   -3.7596   -1.5577 H   0  0  0  0  0  0  0  0  0  0  0  0
  -11.6477   -2.8492   -2.5828 H   0  0  0  0  0  0  0  0  0  0  0  0
  1  2  2  0  0  0  0
  1 26  1  0  0  0  0
  2  3  1  0  0  0  0
  2 12  1  0  0  0  0
  3  4  2  0  0  0  0
  3 27  1  0  0  0  0
  4  5  1  0  0  0  0
  4  7  1  0  0  0  0
  5  6  2  0  0  0  0
  6  1  1  0  0  0  0
  6 28  1  0  0  0  0
  7  8  2  0  0  0  0
  8  9  1  0  0  0  0
  8 11  1  0  0  0  0
  9  5  1  0  0  0  0
  9 10  1  0  0  0  0
 10 29  1  0  0  0  0
 10 30  1  0  0  0  0
 10 31  1  0  0  0  0
 11 17  1  0  0  0  0
 11 32  1  0  0  0  0
 11 33  1  0  0  0  0
 12 13  1  0  0  0  0
 12 14  1  0  0  0  0
 13 16  1  0  0  0  0
 13 34  1  0  0  0  0
 13 35  1  0  0  0  0
 14 15  1  0  0  0  0
 14 36  1  0  0  0  0
 14 37  1  0  0  0  0
 15 38  1  0  0  0  0
 15 39  1  0  0  0  0
 15 40  1  0  0  0  0
 16 41  1  0  0  0  0
 16 42  1  0  0  0  0
 16 43  1  0  0  0  0
 17 18  1  0  0  0  0
 17 44  1  0  0  0  0
 17 45  1  0  0  0  0
 18 19  1  0  0  0  0
 18 46  1  0  0  0  0
 18 47  1  0  0  0  0
 19 20  1  0  0  0  0
 19 48  1  0  0  0  0
 19 49  1  0  0  0  0
 20 21  1  0  0  0  0
 20 50  1  0  0  0  0
 20 51  1  0  0  0  0
 21 22  1  0  0  0  0
 21 52  1  0  0  0  0
 21 53  1  0  0  0  0
 22 23  2  0  0  0  0
 22 24  1  0  0  0  0
 24 25  1  0  0  0  0
 24 54  1  0  0  0  0
 25 55  1  0  0  0  0
M  END
>  <Mol_ID>
4687

>  <Formula>
C19H28Cl2N4O2

>  <MolWeight>
415.35722

>  <Cat>
S8769

>  <Name>
Tinostamustine(EDO-S101)

>  <Synonyms>
N/A

>  <Target>
HDAC

>  <Form>
Free Base

>  <CAS>
1236199-60-2

>  <URL>
http://www.selleck.cn/products/tinostamustine.html

$$$$
