Tiopronin.cdx
 OpenBabel08302522013D

 19 18  0  0  0  0  0  0  0  0999 V2000
    1.5946    0.9136   -1.0940 C   0  0  0  0  0  0  0  0  0  0  0  0
   -0.7739    0.6359   -1.6300 N   0  0  0  0  0  0  0  0  0  0  0  0
    0.1601    1.2023   -0.6803 C   0  0  0  0  0  0  0  0  0  0  0  0
    1.9072    0.3042   -2.1083 O   0  0  0  0  0  0  0  0  0  0  0  0
    2.5122    1.4063   -0.2300 O   0  0  0  0  0  0  0  0  0  0  0  0
   -2.1224    0.9073   -1.5452 C   0  0  0  0  0  0  0  0  0  0  0  0
   -2.9548    0.3619   -2.7085 C   0  0  3  0  0  0  0  0  0  0  0  0
   -4.4469    0.5587   -2.4789 C   0  0  0  0  0  0  0  0  0  0  0  0
   -2.5974    1.5335   -0.6021 O   0  0  0  0  0  0  0  0  0  0  0  0
   -2.4589    1.2205   -4.2479 S   0  0  0  0  0  0  0  0  0  0  0  0
   -0.3948    0.2311   -2.4848 H   0  0  0  0  0  0  0  0  0  0  0  0
   -0.0384    0.7602    0.2999 H   0  0  0  0  0  0  0  0  0  0  0  0
    0.0058    2.2857   -0.6449 H   0  0  0  0  0  0  0  0  0  0  0  0
    2.1318    1.8782    0.5359 H   0  0  0  0  0  0  0  0  0  0  0  0
   -2.7397   -0.7069   -2.8213 H   0  0  0  0  0  0  0  0  0  0  0  0
   -4.7030    1.6144   -2.3295 H   0  0  0  0  0  0  0  0  0  0  0  0
   -5.0371    0.1750   -3.3185 H   0  0  0  0  0  0  0  0  0  0  0  0
   -4.7660    0.0210   -1.5792 H   0  0  0  0  0  0  0  0  0  0  0  0
   -2.7243    2.4634   -3.8144 H   0  0  0  0  0  0  0  0  0  0  0  0
  1  3  1  0  0  0  0
  1  4  2  0  0  0  0
  1  5  1  0  0  0  0
  2  3  1  0  0  0  0
  2  6  1  0  0  0  0
  2 11  1  0  0  0  0
  3 12  1  0  0  0  0
  3 13  1  0  0  0  0
  5 14  1  0  0  0  0
  6  7  1  0  0  0  0
  6  9  2  0  0  0  0
  7  8  1  0  0  0  0
  7 10  1  0  0  0  0
  7 15  1  0  0  0  0
  8 16  1  0  0  0  0
  8 17  1  0  0  0  0
  8 18  1  0  0  0  0
 10 19  1  0  0  0  0
M  END
>  <Mol_ID>
1129

>  <Formula>
C5H9NO3S

>  <MolWeight>
163.19486

>  <Cat>
S2062

>  <Name>
Tiopronin

>  <Synonyms>
N/A

>  <Target>
ROS

>  <Form>
free base

>  <CAS>
1953-02-2

>  <URL>
http://selleckchem.com/products/tiopronin-thiola.html

$$$$
