TM5441
 OpenBabel08302521243D

 47 49  0  0  0  0  0  0  0  0999 V2000
    1.6247    0.4068   -0.3674 O   0  0  0  0  0  0  0  0  0  0  0  0
   -1.8684    8.0661    4.3463 O   0  0  0  0  0  0  0  0  0  0  0  0
   -0.2184    3.4993   -0.4691 O   0  0  0  0  0  0  0  0  0  0  0  0
   -0.7028   -2.0095    0.2753 O   0  0  0  0  0  0  0  0  0  0  0  0
   -4.1260    2.6847    2.4065 O   0  0  0  0  0  0  0  0  0  0  0  0
   -2.0368    1.8438    2.3556 O   0  0  0  0  0  0  0  0  0  0  0  0
    1.7088    2.9864    0.7526 N   0  0  0  0  0  0  0  0  0  0  0  0
   -1.4934    0.1722    0.4388 N   0  0  0  0  0  0  0  0  0  0  0  0
    0.7093    5.8364    2.9989 C   0  0  0  0  0  0  0  0  0  0  0  0
    1.7208    3.9844    1.7550 C   0  0  0  0  0  0  0  0  0  0  0  0
    0.7282    4.9614    1.8954 C   0  0  0  0  0  0  0  0  0  0  0  0
   -0.4589    6.6850    3.2381 C   0  0  0  0  0  0  0  0  0  0  0  0
    1.7712    5.7812    3.9117 C   0  0  0  0  0  0  0  0  0  0  0  0
    2.7561    3.9390    2.6951 C   0  0  0  0  0  0  0  0  0  0  0  0
   -2.8796   -0.1065    0.4045 C   0  0  0  0  0  0  0  0  0  0  0  0
    2.7914    4.8423    3.7585 C   0  0  0  0  0  0  0  0  0  0  0  0
   -3.7584    0.6335    1.2248 C   0  0  0  0  0  0  0  0  0  0  0  0
    0.9638    1.4811   -1.0169 C   0  0  0  0  0  0  0  0  0  0  0  0
    0.7390    2.7745   -0.2130 C   0  0  0  0  0  0  0  0  0  0  0  0
    0.8982   -0.2309    0.6717 C   0  0  0  0  0  0  0  0  0  0  0  0
   -1.7071    6.7399    2.5474 C   0  0  0  0  0  0  0  0  0  0  0  0
   -0.6177    7.5364    4.3163 C   0  0  0  0  0  0  0  0  0  0  0  0
   -3.3872   -1.1247   -0.4127 C   0  0  0  0  0  0  0  0  0  0  0  0
   -0.5097   -0.8044    0.4110 C   0  0  0  0  0  0  0  0  0  0  0  0
   -5.1015    0.2333    1.3222 C   0  0  0  0  0  0  0  0  0  0  0  0
   -4.7374   -1.4692   -0.3561 C   0  0  0  0  0  0  0  0  0  0  0  0
   -5.5847   -0.8164    0.5353 C   0  0  0  0  0  0  0  0  0  0  0  0
   -2.5316    7.5622    3.2778 C   0  0  0  0  0  0  0  0  0  0  0  0
   -3.2207    1.7529    2.0650 C   0  0  0  0  0  0  0  0  0  0  0  0
   -4.9882    2.6391    1.9578 H   0  0  0  0  0  0  0  0  0  0  0  0
    2.4479    2.2909    0.7902 H   0  0  0  0  0  0  0  0  0  0  0  0
   -1.2435    1.0187    0.9581 H   0  0  0  0  0  0  0  0  0  0  0  0
   -0.0723    5.0256    1.1679 H   0  0  0  0  0  0  0  0  0  0  0  0
    1.8078    6.4373    4.7769 H   0  0  0  0  0  0  0  0  0  0  0  0
    3.5387    3.1892    2.6274 H   0  0  0  0  0  0  0  0  0  0  0  0
    3.5912    4.7903    4.4945 H   0  0  0  0  0  0  0  0  0  0  0  0
    1.5811    1.7592   -1.8776 H   0  0  0  0  0  0  0  0  0  0  0  0
    0.0043    1.1457   -1.4248 H   0  0  0  0  0  0  0  0  0  0  0  0
    1.5117   -1.0820    0.9934 H   0  0  0  0  0  0  0  0  0  0  0  0
    0.8497    0.4322    1.5432 H   0  0  0  0  0  0  0  0  0  0  0  0
   -1.9972    6.1989    1.6575 H   0  0  0  0  0  0  0  0  0  0  0  0
    0.0126    7.8337    5.1421 H   0  0  0  0  0  0  0  0  0  0  0  0
   -2.7367   -1.6637   -1.0987 H   0  0  0  0  0  0  0  0  0  0  0  0
   -5.7781    0.6890    2.0393 H   0  0  0  0  0  0  0  0  0  0  0  0
   -5.1155   -2.2722   -0.9852 H   0  0  0  0  0  0  0  0  0  0  0  0
   -6.6204   -1.1374    0.6258 H   0  0  0  0  0  0  0  0  0  0  0  0
   -3.5661    7.8607    3.1841 H   0  0  0  0  0  0  0  0  0  0  0  0
  1 18  1  0  0  0  0
  1 20  1  0  0  0  0
  2 22  1  0  0  0  0
  2 28  1  0  0  0  0
  3 19  2  0  0  0  0
  4 24  2  0  0  0  0
  5 29  1  0  0  0  0
  5 30  1  0  0  0  0
  6 29  2  0  0  0  0
  7 10  1  0  0  0  0
  7 19  1  0  0  0  0
  7 31  1  0  0  0  0
  8 15  1  0  0  0  0
  8 24  1  0  0  0  0
  8 32  1  0  0  0  0
  9 11  2  0  0  0  0
  9 12  1  0  0  0  0
  9 13  1  0  0  0  0
 10 11  1  0  0  0  0
 10 14  2  0  0  0  0
 11 33  1  0  0  0  0
 12 21  1  0  0  0  0
 12 22  2  0  0  0  0
 13 16  2  0  0  0  0
 13 34  1  0  0  0  0
 14 16  1  0  0  0  0
 14 35  1  0  0  0  0
 15 17  2  0  0  0  0
 15 23  1  0  0  0  0
 16 36  1  0  0  0  0
 17 25  1  0  0  0  0
 17 29  1  0  0  0  0
 18 19  1  0  0  0  0
 18 37  1  0  0  0  0
 18 38  1  0  0  0  0
 20 24  1  0  0  0  0
 20 39  1  0  0  0  0
 20 40  1  0  0  0  0
 21 28  2  0  0  0  0
 21 41  1  0  0  0  0
 22 42  1  0  0  0  0
 23 26  2  0  0  0  0
 23 43  1  0  0  0  0
 25 27  2  0  0  0  0
 25 44  1  0  0  0  0
 26 27  1  0  0  0  0
 26 45  1  0  0  0  0
 27 46  1  0  0  0  0
 28 47  1  0  0  0  0
M  END
>  <Mol_ID>
4926

>  <Formula>
C21H17ClN2O6

>  <MolWeight>
428.82248

>  <Cat>
S6778

>  <Name>
TM5441

>  <Synonyms>
N/A

>  <Target>
PAI-1

>  <Form>
Free Base

>  <CAS>
1190221-43-2

>  <URL>
http://www.selleckchem.com/products/tm5441.html

$$$$
