Tolazoline HCl.cdx
 OpenBabel08302522043D

 24 25  0  0  0  0  0  0  0  0999 V2000
    1.3860   -0.1848    0.0938 C   0  0  0  0  0  0  0  0  0  0  0  0
    2.8776   -0.3794    0.2184 C   0  0  0  0  0  0  0  0  0  0  0  0
    0.5911   -1.1511   -0.5385 C   0  0  0  0  0  0  0  0  0  0  0  0
    0.7731    0.9654    0.6127 C   0  0  0  0  0  0  0  0  0  0  0  0
    3.6896    0.1254   -0.9526 C   0  0  0  0  0  0  0  0  0  0  0  0
   -0.7921   -0.9823   -0.6250 C   0  0  0  0  0  0  0  0  0  0  0  0
   -0.6099    1.1340    0.5212 C   0  0  0  0  0  0  0  0  0  0  0  0
    3.3030    1.1831   -1.7419 N   0  0  0  0  0  0  0  0  0  0  0  0
    4.8425   -0.4252   -1.2484 N   0  0  0  0  0  0  0  0  0  0  0  0
   -1.3924    0.1577   -0.0931 C   0  0  0  0  0  0  0  0  0  0  0  0
    4.1457    1.1805   -2.9141 C   0  0  0  0  0  0  0  0  0  0  0  0
    5.3426    0.3742   -2.4034 C   0  0  0  0  0  0  0  0  0  0  0  0
    3.2439    0.1290    1.1186 H   0  0  0  0  0  0  0  0  0  0  0  0
    3.0950   -1.4449    0.3629 H   0  0  0  0  0  0  0  0  0  0  0  0
    1.0445   -2.0506   -0.9509 H   0  0  0  0  0  0  0  0  0  0  0  0
    1.3700    1.7299    1.1041 H   0  0  0  0  0  0  0  0  0  0  0  0
   -1.4037   -1.7459   -1.0993 H   0  0  0  0  0  0  0  0  0  0  0  0
   -1.0772    2.0220    0.9392 H   0  0  0  0  0  0  0  0  0  0  0  0
    2.3056    1.3202   -1.8725 H   0  0  0  0  0  0  0  0  0  0  0  0
   -2.4708    0.2824   -0.1504 H   0  0  0  0  0  0  0  0  0  0  0  0
    4.4247    2.1870   -3.2366 H   0  0  0  0  0  0  0  0  0  0  0  0
    3.6475    0.6569   -3.7366 H   0  0  0  0  0  0  0  0  0  0  0  0
    5.7483   -0.2797   -3.1816 H   0  0  0  0  0  0  0  0  0  0  0  0
    6.1427    1.0357   -2.0512 H   0  0  0  0  0  0  0  0  0  0  0  0
  1  2  1  0  0  0  0
  1  3  2  0  0  0  0
  1  4  1  0  0  0  0
  2  5  1  0  0  0  0
  2 13  1  0  0  0  0
  2 14  1  0  0  0  0
  3  6  1  0  0  0  0
  3 15  1  0  0  0  0
  4  7  2  0  0  0  0
  4 16  1  0  0  0  0
  5  8  1  0  0  0  0
  5  9  2  0  0  0  0
  6 10  2  0  0  0  0
  6 17  1  0  0  0  0
  7 10  1  0  0  0  0
  7 18  1  0  0  0  0
  8 11  1  0  0  0  0
  8 19  1  0  0  0  0
  9 12  1  0  0  0  0
 10 20  1  0  0  0  0
 11 12  1  0  0  0  0
 11 21  1  0  0  0  0
 11 22  1  0  0  0  0
 12 23  1  0  0  0  0
 12 24  1  0  0  0  0
M  END
>  <Mol_ID>
1259

>  <Formula>
C10H13ClN2

>  <MolWeight>
196.67662

>  <Cat>
S4124

>  <Name>
Tolazoline HCl

>  <Synonyms>
Imidaline hydrochloride,NSC35110 hydrochloride

>  <Target>
Adrenergic Receptor

>  <Form>
Hydrochloride

>  <CAS>
59-97-2

>  <URL>
http://selleckchem.com/products/tolazoline-hcl.html

$$$$
