Tolbutamide.cdx
 OpenBabel08302521363D

 36 36  0  0  0  0  0  0  0  0999 V2000
   -2.2997   -0.4983    1.5944 C   0  0  0  0  0  0  0  0  0  0  0  0
   -2.5862   -1.4783    2.5517 C   0  0  0  0  0  0  0  0  0  0  0  0
   -1.7644   -1.5982    3.6782 C   0  0  0  0  0  0  0  0  0  0  0  0
   -0.6735   -0.7352    3.8526 C   0  0  0  0  0  0  0  0  0  0  0  0
   -0.3393    0.1614    2.8299 C   0  0  0  0  0  0  0  0  0  0  0  0
   -1.1489    0.2811    1.7027 C   0  0  0  0  0  0  0  0  0  0  0  0
   -3.4143   -0.1743    0.2499 S   0  0  0  0  0  0  0  0  0  0  0  0
   -2.6356   -0.0968   -0.9653 O   0  0  0  0  0  0  0  0  0  0  0  0
   -4.5416   -1.0703    0.3867 O   0  0  0  0  0  0  0  0  0  0  0  0
   -3.9846    1.3213    0.6171 N   0  0  0  0  0  0  0  0  0  0  0  0
    0.1353   -0.7524    5.1172 C   0  0  0  0  0  0  0  0  0  0  0  0
   -3.6572    2.6069    0.1796 C   0  0  0  0  0  0  0  0  0  0  0  0
   -4.3952    3.5156    0.5266 O   0  0  0  0  0  0  0  0  0  0  0  0
   -2.5583    2.7910   -0.6117 N   0  0  0  0  0  0  0  0  0  0  0  0
   -2.3276    4.0607   -1.2925 C   0  0  0  0  0  0  0  0  0  0  0  0
   -2.1377    5.3224   -0.4230 C   0  0  0  0  0  0  0  0  0  0  0  0
   -0.8111    5.4401    0.3317 C   0  0  0  0  0  0  0  0  0  0  0  0
   -0.6768    4.4972    1.5132 C   0  0  0  0  0  0  0  0  0  0  0  0
   -3.4512   -2.1314    2.4513 H   0  0  0  0  0  0  0  0  0  0  0  0
   -2.0001   -2.3430    4.4370 H   0  0  0  0  0  0  0  0  0  0  0  0
    0.5363    0.7997    2.9238 H   0  0  0  0  0  0  0  0  0  0  0  0
   -0.8948    1.0029    0.9329 H   0  0  0  0  0  0  0  0  0  0  0  0
   -4.8735    1.2954    1.1035 H   0  0  0  0  0  0  0  0  0  0  0  0
    1.0433   -1.3481    4.9931 H   0  0  0  0  0  0  0  0  0  0  0  0
    0.4146    0.2711    5.3945 H   0  0  0  0  0  0  0  0  0  0  0  0
   -0.4481   -1.1558    5.9516 H   0  0  0  0  0  0  0  0  0  0  0  0
   -2.2298    1.9545   -1.0880 H   0  0  0  0  0  0  0  0  0  0  0  0
   -1.4562    3.9361   -1.9459 H   0  0  0  0  0  0  0  0  0  0  0  0
   -3.1950    4.2353   -1.9447 H   0  0  0  0  0  0  0  0  0  0  0  0
   -2.1824    6.1860   -1.1021 H   0  0  0  0  0  0  0  0  0  0  0  0
   -2.9684    5.4570    0.2763 H   0  0  0  0  0  0  0  0  0  0  0  0
    0.0304    5.3009   -0.3557 H   0  0  0  0  0  0  0  0  0  0  0  0
   -0.7306    6.4665    0.7151 H   0  0  0  0  0  0  0  0  0  0  0  0
   -0.6726    3.4537    1.1946 H   0  0  0  0  0  0  0  0  0  0  0  0
    0.2666    4.6873    2.0362 H   0  0  0  0  0  0  0  0  0  0  0  0
   -1.4915    4.6445    2.2292 H   0  0  0  0  0  0  0  0  0  0  0  0
  1  2  2  0  0  0  0
  1  6  1  0  0  0  0
  1  7  1  0  0  0  0
  2  3  1  0  0  0  0
  2 19  1  0  0  0  0
  3  4  2  0  0  0  0
  3 20  1  0  0  0  0
  4  5  1  0  0  0  0
  4 11  1  0  0  0  0
  5  6  2  0  0  0  0
  5 21  1  0  0  0  0
  6 22  1  0  0  0  0
  7  8  2  0  0  0  0
  7  9  2  0  0  0  0
  7 10  1  0  0  0  0
 10 12  1  0  0  0  0
 10 23  1  0  0  0  0
 11 24  1  0  0  0  0
 11 25  1  0  0  0  0
 11 26  1  0  0  0  0
 12 13  2  0  0  0  0
 12 14  1  0  0  0  0
 14 15  1  0  0  0  0
 14 27  1  0  0  0  0
 15 16  1  0  0  0  0
 15 28  1  0  0  0  0
 15 29  1  0  0  0  0
 16 17  1  0  0  0  0
 16 30  1  0  0  0  0
 16 31  1  0  0  0  0
 17 18  1  0  0  0  0
 17 32  1  0  0  0  0
 17 33  1  0  0  0  0
 18 34  1  0  0  0  0
 18 35  1  0  0  0  0
 18 36  1  0  0  0  0
M  END
>  <Mol_ID>
690

>  <Formula>
C12H18N2O3S

>  <MolWeight>
270.34792

>  <Cat>
S2443

>  <Name>
Tolbutamide?(HLS 831)

>  <Synonyms>
HLS 831

>  <Target>
Potassium Channel

>  <Form>
free base

>  <CAS>
64-77-7

>  <URL>
http://selleckchem.com/products/tolbutamide.html

$$$$
