Tolfenamic acid.cdx
 OpenBabel08302521453D

 30 31  0  0  0  0  0  0  0  0999 V2000
    1.3181   -0.2120    0.0141 C   0  0  0  0  0  0  0  0  0  0  0  0
    2.7220   -0.3533    0.0677 N   0  0  0  0  0  0  0  0  0  0  0  0
    3.7368    0.6128    0.2248 C   0  0  0  0  0  0  0  0  0  0  0  0
    0.4494   -1.2220    0.4893 C   0  0  0  0  0  0  0  0  0  0  0  0
   -0.9445   -1.0284    0.4535 C   0  0  0  0  0  0  0  0  0  0  0  0
   -1.4790    0.1665   -0.0313 C   0  0  0  0  0  0  0  0  0  0  0  0
   -0.6356    1.1633   -0.5034 C   0  0  0  0  0  0  0  0  0  0  0  0
    0.7468    0.9732   -0.4803 C   0  0  0  0  0  0  0  0  0  0  0  0
    3.4949    1.8026    0.9342 C   0  0  0  0  0  0  0  0  0  0  0  0
    4.4720    2.7895    1.0623 C   0  0  0  0  0  0  0  0  0  0  0  0
    5.7170    2.6054    0.4763 C   0  0  0  0  0  0  0  0  0  0  0  0
    5.9768    1.4371   -0.2379 C   0  0  0  0  0  0  0  0  0  0  0  0
    4.9951    0.4392   -0.3851 C   0  0  0  0  0  0  0  0  0  0  0  0
    1.0194   -2.5141    0.9663 C   0  0  0  0  0  0  0  0  0  0  0  0
    0.2827   -3.1535    1.9008 O   0  0  0  0  0  0  0  0  0  0  0  0
    2.0831   -2.9556    0.5590 O   0  0  0  0  0  0  0  0  0  0  0  0
    5.3433   -0.7542   -1.2330 C   0  0  0  0  0  0  0  0  0  0  0  0
    3.0401   -1.3229    0.1308 H   0  0  0  0  0  0  0  0  0  0  0  0
   -1.6346   -1.8078    0.7641 H   0  0  0  0  0  0  0  0  0  0  0  0
   -2.5566    0.3127   -0.0634 H   0  0  0  0  0  0  0  0  0  0  0  0
   -1.0429    2.0855   -0.9097 H   0  0  0  0  0  0  0  0  0  0  0  0
    1.3868    1.7527   -0.8899 H   0  0  0  0  0  0  0  0  0  0  0  0
    2.5368    1.9610    1.4223 H   0  0  0  0  0  0  0  0  0  0  0  0
    4.2552    3.7006    1.6130 H   0  0  0  0  0  0  0  0  0  0  0  0
    6.4844    3.3691    0.5717 H   0  0  0  0  0  0  0  0  0  0  0  0
    6.9548    1.3084   -0.6987 H   0  0  0  0  0  0  0  0  0  0  0  0
   -0.4454   -2.6374    2.2898 H   0  0  0  0  0  0  0  0  0  0  0  0
    5.6454   -0.4190   -2.2316 H   0  0  0  0  0  0  0  0  0  0  0  0
    6.1697   -1.3100   -0.7778 H   0  0  0  0  0  0  0  0  0  0  0  0
    4.5097   -1.4470   -1.3704 H   0  0  0  0  0  0  0  0  0  0  0  0
  1  2  1  0  0  0  0
  1  4  2  0  0  0  0
  2  3  1  0  0  0  0
  2 18  1  0  0  0  0
  3  9  2  0  0  0  0
  4  5  1  0  0  0  0
  4 14  1  0  0  0  0
  5  6  2  0  0  0  0
  5 19  1  0  0  0  0
  6  7  1  0  0  0  0
  6 20  1  0  0  0  0
  7  8  2  0  0  0  0
  7 21  1  0  0  0  0
  8  1  1  0  0  0  0
  8 22  1  0  0  0  0
  9 10  1  0  0  0  0
  9 23  1  0  0  0  0
 10 11  2  0  0  0  0
 10 24  1  0  0  0  0
 11 12  1  0  0  0  0
 11 25  1  0  0  0  0
 12 13  2  0  0  0  0
 12 26  1  0  0  0  0
 13  3  1  0  0  0  0
 13 17  1  0  0  0  0
 14 15  1  0  0  0  0
 14 16  2  0  0  0  0
 15 27  1  0  0  0  0
 17 28  1  0  0  0  0
 17 29  1  0  0  0  0
 17 30  1  0  0  0  0
M  END
>  <Mol_ID>
942

>  <Formula>
C14H12ClNO2

>  <MolWeight>
261.70358

>  <Cat>
S1959

>  <Name>
Tolfenamic Acid

>  <Synonyms>
Clotam

>  <Target>
COX

>  <Form>
free base

>  <CAS>
13710-19-5

>  <URL>
http://selleckchem.com/products/tolfenamic-acid.html

$$$$
