Toluidine Blue O
 OpenBabel08302521383D

 35 37  0  0  0  0  0  0  0  0999 V2000
    0.8379   -0.2100    0.0390 N   0  0  0  0  0  0  0  0  0  0  0  0
    0.0521   -1.4351    0.0436 C   0  0  0  0  0  0  0  0  0  0  0  0
    0.0528    1.0283    0.0368 C   0  0  0  0  0  0  0  0  0  0  0  0
    9.5760    4.8212    0.2147 N   0  0  0  0  0  0  0  0  0  0  0  0
   10.9213    2.2301    0.0847 C   0  0  0  0  0  0  0  0  0  0  0  0
    4.2885    1.1857    0.0210 C   0  0  0  0  0  0  0  0  0  0  0  0
    5.1364    0.0714    0.0127 C   0  0  0  0  0  0  0  0  0  0  0  0
    4.9035    2.8567    0.0240 S   0  3  0  0  0  0  0  0  0  0  0  0
    2.8880    1.0693    0.0269 C   0  0  0  0  0  0  0  0  0  0  0  0
    6.4977    0.1145    0.0027 N   0  0  0  0  0  0  0  0  0  0  0  0
    4.4807   -1.1538    0.0189 C   0  0  0  0  0  0  0  0  0  0  0  0
    6.6584    2.5700    0.0350 C   0  0  0  0  0  0  0  0  0  0  0  0
    2.2214   -0.1576    0.0317 C   0  0  0  0  0  0  0  0  0  0  0  0
    7.2079    1.2756    0.0139 C   0  0  0  0  0  0  0  0  0  0  0  0
    3.0659   -1.2729    0.0298 C   0  0  0  0  0  0  0  0  0  0  0  0
    7.4519    3.7240    0.0726 C   0  0  0  0  0  0  0  0  0  0  0  0
    8.6004    1.2211    0.0231 C   0  0  0  0  0  0  0  0  0  0  0  0
    8.8371    3.6429    0.0341 C   0  0  0  0  0  0  0  0  0  0  0  0
    9.4223    2.3767    0.0497 C   0  0  0  0  0  0  0  0  0  0  0  0
   -0.5916   -1.4538    0.9305 H   0  0  0  0  0  0  0  0  0  0  0  0
   -0.5958   -1.4583   -0.8402 H   0  0  0  0  0  0  0  0  0  0  0  0
    0.6332   -2.3574    0.0447 H   0  0  0  0  0  0  0  0  0  0  0  0
    0.2663    1.6291    0.9288 H   0  0  0  0  0  0  0  0  0  0  0  0
    0.2589    1.6215   -0.8620 H   0  0  0  0  0  0  0  0  0  0  0  0
   -1.0238    0.8254    0.0422 H   0  0  0  0  0  0  0  0  0  0  0  0
    9.0897    5.6657   -0.0772 H   0  0  0  0  0  0  0  0  0  0  0  0
   10.5239    4.7872   -0.1429 H   0  0  0  0  0  0  0  0  0  0  0  0
   11.3636    2.6987   -0.8017 H   0  0  0  0  0  0  0  0  0  0  0  0
   11.3276    2.7072    0.9831 H   0  0  0  0  0  0  0  0  0  0  0  0
   11.2301    1.1808    0.0946 H   0  0  0  0  0  0  0  0  0  0  0  0
    2.3217    1.9962    0.0284 H   0  0  0  0  0  0  0  0  0  0  0  0
    5.0773   -2.0652    0.0192 H   0  0  0  0  0  0  0  0  0  0  0  0
    2.6653   -2.2816    0.0373 H   0  0  0  0  0  0  0  0  0  0  0  0
    6.9741    4.6978    0.1297 H   0  0  0  0  0  0  0  0  0  0  0  0
    9.0689    0.2383    0.0235 H   0  0  0  0  0  0  0  0  0  0  0  0
  1  2  1  0  0  0  0
  1  3  1  0  0  0  0
  1 13  1  0  0  0  0
  2 20  1  0  0  0  0
  2 21  1  0  0  0  0
  2 22  1  0  0  0  0
  3 23  1  0  0  0  0
  3 24  1  0  0  0  0
  3 25  1  0  0  0  0
  4 18  1  0  0  0  0
  4 26  1  0  0  0  0
  4 27  1  0  0  0  0
  5 19  1  0  0  0  0
  5 28  1  0  0  0  0
  5 29  1  0  0  0  0
  5 30  1  0  0  0  0
  6  7  1  0  0  0  0
  6  8  2  0  0  0  0
  6  9  1  0  0  0  0
  7 10  2  0  0  0  0
  7 11  1  0  0  0  0
  8 12  1  0  0  0  0
  9 13  2  0  0  0  0
  9 31  1  0  0  0  0
 10 14  1  0  0  0  0
 11 15  2  0  0  0  0
 11 32  1  0  0  0  0
 12 14  2  0  0  0  0
 12 16  1  0  0  0  0
 13 15  1  0  0  0  0
 14 17  1  0  0  0  0
 15 33  1  0  0  0  0
 16 18  2  0  0  0  0
 16 34  1  0  0  0  0
 17 19  2  0  0  0  0
 17 35  1  0  0  0  0
 18 19  1  0  0  0  0
M  CHG  1   8   1
M  END
>  <Mol_ID>
7624

>  <Formula>
C15H16ClN3S

>  <MolWeight>
305.82564

>  <Cat>
E2958

>  <Name>
Toluidine Blue O

>  <Synonyms>
Toluidine Blue

>  <Target>
Others

>  <Form>
chloride

>  <CAS>
92-31-9

>  <URL>
https://www.selleckchem.com/products/toluidine-blue-o.html

$$$$
