TP0427736 HCl
 OpenBabel08302521043D

 30 33  0  0  0  0  0  0  0  0999 V2000
    0.1048   -0.7654    0.3246 C   0  0  0  0  0  0  0  0  0  0  0  0
    1.2673   -1.1740   -0.3283 C   0  0  0  0  0  0  0  0  0  0  0  0
    2.3741   -0.3224   -0.4689 C   0  0  0  0  0  0  0  0  0  0  0  0
    2.3106    0.9930    0.0191 C   0  0  0  0  0  0  0  0  0  0  0  0
    1.1420    1.4103    0.6750 C   0  0  0  0  0  0  0  0  0  0  0  0
    0.0504    0.5435    0.8397 C   0  0  0  0  0  0  0  0  0  0  0  0
   -0.8971   -1.7229    0.4058 N   0  0  0  0  0  0  0  0  0  0  0  0
   -0.4971   -2.8221   -0.1908 C   0  0  0  0  0  0  0  0  0  0  0  0
    1.0733   -2.7982   -0.8699 S   0  0  0  0  0  0  0  0  0  0  0  0
    3.4757    1.8841   -0.1035 C   0  0  0  0  0  0  0  0  0  0  0  0
    3.8065    2.8224    0.8514 N   0  0  0  0  0  0  0  0  0  0  0  0
    5.0244    3.3506    0.5437 C   0  0  0  0  0  0  0  0  0  0  0  0
    5.5156    2.8233   -0.5485 N   0  0  0  0  0  0  0  0  0  0  0  0
    4.5410    1.9587   -1.0021 C   0  0  0  0  0  0  0  0  0  0  0  0
    4.6620    1.2038   -2.2976 C   0  0  0  0  0  0  0  0  0  0  0  0
    3.6104    0.8218   -2.9962 N   0  0  0  0  0  0  0  0  0  0  0  0
    4.0042    0.1362   -4.1304 C   0  0  0  0  0  0  0  0  0  0  0  0
    5.3644   -0.0814   -4.2249 C   0  0  0  0  0  0  0  0  0  0  0  0
    6.1792    0.7485   -2.9637 S   0  0  0  0  0  0  0  0  0  0  0  0
    2.9581   -0.2754   -5.0989 C   0  0  0  0  0  0  0  0  0  0  0  0
    3.2651   -0.7006   -0.9604 H   0  0  0  0  0  0  0  0  0  0  0  0
    1.0514    2.4192    1.0657 H   0  0  0  0  0  0  0  0  0  0  0  0
   -0.8442    0.8715    1.3579 H   0  0  0  0  0  0  0  0  0  0  0  0
   -1.1215   -3.7029   -0.2532 H   0  0  0  0  0  0  0  0  0  0  0  0
    3.2665    3.0443    1.6751 H   0  0  0  0  0  0  0  0  0  0  0  0
    5.5030    4.1074    1.1544 H   0  0  0  0  0  0  0  0  0  0  0  0
    5.9091   -0.6294   -4.9799 H   0  0  0  0  0  0  0  0  0  0  0  0
    2.1491   -0.8081   -4.5903 H   0  0  0  0  0  0  0  0  0  0  0  0
    2.5347    0.6118   -5.5822 H   0  0  0  0  0  0  0  0  0  0  0  0
    3.3652   -0.9253   -5.8789 H   0  0  0  0  0  0  0  0  0  0  0  0
  1  2  1  0  0  0  0
  1  7  1  0  0  0  0
  2  3  2  0  0  0  0
  3  4  1  0  0  0  0
  3 21  1  0  0  0  0
  4  5  2  0  0  0  0
  4 10  1  0  0  0  0
  5  6  1  0  0  0  0
  5 22  1  0  0  0  0
  6  1  2  0  0  0  0
  6 23  1  0  0  0  0
  7  8  2  0  0  0  0
  8  9  1  0  0  0  0
  8 24  1  0  0  0  0
  9  2  1  0  0  0  0
 10 11  1  0  0  0  0
 11 12  1  0  0  0  0
 11 25  1  0  0  0  0
 12 13  2  0  0  0  0
 12 26  1  0  0  0  0
 13 14  1  0  0  0  0
 14 10  2  0  0  0  0
 14 15  1  0  0  0  0
 15 16  2  0  0  0  0
 16 17  1  0  0  0  0
 17 18  2  0  0  0  0
 17 20  1  0  0  0  0
 18 19  1  0  0  0  0
 18 27  1  0  0  0  0
 19 15  1  0  0  0  0
 20 28  1  0  0  0  0
 20 29  1  0  0  0  0
 20 30  1  0  0  0  0
M  END
>  <Mol_ID>
4302

>  <Formula>
C14H11ClN4S2

>  <MolWeight>
334.84694

>  <Cat>
S8700

>  <Name>
TP0427736 HCl

>  <Synonyms>
N/A

>  <Target>
TGF-beta/Smad

>  <Form>
hydrochloride

>  <CAS>
864374-00-5

>  <URL>
http://www.selleckchem.com/products/tp0427736-hcl.html

$$$$
