TPEN
 OpenBabel08302521303D

 60 63  0  0  0  0  0  0  0  0999 V2000
    1.0106    0.4376   -0.0782 C   0  0  0  0  0  0  0  0  0  0  0  0
    1.0595   -0.9673    0.5776 C   0  0  0  0  0  0  0  0  0  0  0  0
    0.0183    1.3330    0.5575 N   0  0  0  0  0  0  0  0  0  0  0  0
    1.6489   -2.0964   -0.1519 N   0  0  0  0  0  0  0  0  0  0  0  0
    1.5566   -3.3312    0.6616 C   0  0  0  0  0  0  0  0  0  0  0  0
    0.2237   -4.0696    0.5073 C   0  0  0  0  0  0  0  0  0  0  0  0
   -0.5690   -3.8695   -0.6323 C   0  0  0  0  0  0  0  0  0  0  0  0
   -1.7026   -4.6502   -0.8236 C   0  0  0  0  0  0  0  0  0  0  0  0
   -2.0276   -5.6166    0.1117 C   0  0  0  0  0  0  0  0  0  0  0  0
   -1.2067   -5.7471    1.2247 C   0  0  0  0  0  0  0  0  0  0  0  0
   -0.0972   -5.0019    1.4415 N   0  0  0  0  0  0  0  0  0  0  0  0
    2.9814   -1.8754   -0.7047 C   0  0  0  0  0  0  0  0  0  0  0  0
    4.1498   -1.4838    0.1897 C   0  0  0  0  0  0  0  0  0  0  0  0
    5.1123   -0.6276   -0.3523 C   0  0  0  0  0  0  0  0  0  0  0  0
    6.3419   -0.4943    0.2836 C   0  0  0  0  0  0  0  0  0  0  0  0
    6.5722   -1.1917    1.4597 C   0  0  0  0  0  0  0  0  0  0  0  0
    5.5460   -1.9717    1.9684 C   0  0  0  0  0  0  0  0  0  0  0  0
    4.3514   -2.1478    1.3542 N   0  0  0  0  0  0  0  0  0  0  0  0
    0.2956    1.7427    1.9483 C   0  0  0  0  0  0  0  0  0  0  0  0
    0.0495    0.6243    2.9555 C   0  0  0  0  0  0  0  0  0  0  0  0
   -1.1780   -0.0428    2.9483 C   0  0  0  0  0  0  0  0  0  0  0  0
   -1.2589   -1.2980    3.5463 C   0  0  0  0  0  0  0  0  0  0  0  0
   -0.1340   -1.8322    4.1603 C   0  0  0  0  0  0  0  0  0  0  0  0
    1.0133   -1.0600    4.2145 C   0  0  0  0  0  0  0  0  0  0  0  0
    1.1248    0.1660    3.6480 N   0  0  0  0  0  0  0  0  0  0  0  0
   -0.5146    2.3855   -0.3178 C   0  0  0  0  0  0  0  0  0  0  0  0
    0.4377    3.3678   -0.9834 C   0  0  0  0  0  0  0  0  0  0  0  0
    1.2802    4.2006   -0.2541 C   0  0  0  0  0  0  0  0  0  0  0  0
    2.0183    5.1764   -0.9236 C   0  0  0  0  0  0  0  0  0  0  0  0
    1.8881    5.3145   -2.2992 C   0  0  0  0  0  0  0  0  0  0  0  0
    1.0286    4.4538   -2.9562 C   0  0  0  0  0  0  0  0  0  0  0  0
    0.3157    3.4915   -2.3384 N   0  0  0  0  0  0  0  0  0  0  0  0
    0.7345    0.2975   -1.1310 H   0  0  0  0  0  0  0  0  0  0  0  0
    2.0056    0.8984   -0.0645 H   0  0  0  0  0  0  0  0  0  0  0  0
    1.5977   -0.8795    1.5200 H   0  0  0  0  0  0  0  0  0  0  0  0
    0.0224   -1.2490    0.7810 H   0  0  0  0  0  0  0  0  0  0  0  0
    2.3112   -4.0605    0.3428 H   0  0  0  0  0  0  0  0  0  0  0  0
    1.7418   -3.1358    1.7268 H   0  0  0  0  0  0  0  0  0  0  0  0
   -0.2975   -3.1219   -1.3679 H   0  0  0  0  0  0  0  0  0  0  0  0
   -2.3151   -4.5056   -1.7107 H   0  0  0  0  0  0  0  0  0  0  0  0
   -2.8903   -6.2567   -0.0212 H   0  0  0  0  0  0  0  0  0  0  0  0
   -1.4238   -6.4890    1.9874 H   0  0  0  0  0  0  0  0  0  0  0  0
    3.2985   -2.7906   -1.2276 H   0  0  0  0  0  0  0  0  0  0  0  0
    2.8780   -1.1301   -1.5023 H   0  0  0  0  0  0  0  0  0  0  0  0
    4.9336   -0.1169   -1.2934 H   0  0  0  0  0  0  0  0  0  0  0  0
    7.1208    0.1199   -0.1589 H   0  0  0  0  0  0  0  0  0  0  0  0
    7.5323   -1.1387    1.9605 H   0  0  0  0  0  0  0  0  0  0  0  0
    5.6744   -2.5171    2.8992 H   0  0  0  0  0  0  0  0  0  0  0  0
    1.3240    2.1119    2.0453 H   0  0  0  0  0  0  0  0  0  0  0  0
   -0.3655    2.5685    2.2465 H   0  0  0  0  0  0  0  0  0  0  0  0
   -2.0131    0.3430    2.3735 H   0  0  0  0  0  0  0  0  0  0  0  0
   -2.1682   -1.8854    3.4614 H   0  0  0  0  0  0  0  0  0  0  0  0
   -0.1403   -2.8435    4.5545 H   0  0  0  0  0  0  0  0  0  0  0  0
    1.9220   -1.4404    4.6708 H   0  0  0  0  0  0  0  0  0  0  0  0
   -1.0755    1.8828   -1.1097 H   0  0  0  0  0  0  0  0  0  0  0  0
   -1.2683    2.9720    0.2208 H   0  0  0  0  0  0  0  0  0  0  0  0
    1.3500    4.1227    0.8237 H   0  0  0  0  0  0  0  0  0  0  0  0
    2.6747    5.8406   -0.3675 H   0  0  0  0  0  0  0  0  0  0  0  0
    2.4320    6.0785   -2.8423 H   0  0  0  0  0  0  0  0  0  0  0  0
    0.8771    4.5232   -4.0288 H   0  0  0  0  0  0  0  0  0  0  0  0
  1  2  1  0  0  0  0
  1  3  1  0  0  0  0
  1 33  1  0  0  0  0
  1 34  1  0  0  0  0
  2  4  1  0  0  0  0
  2 35  1  0  0  0  0
  2 36  1  0  0  0  0
  3 19  1  0  0  0  0
  3 26  1  0  0  0  0
  4  5  1  0  0  0  0
  4 12  1  0  0  0  0
  5  6  1  0  0  0  0
  5 37  1  0  0  0  0
  5 38  1  0  0  0  0
  6  7  2  0  0  0  0
  6 11  1  0  0  0  0
  7  8  1  0  0  0  0
  7 39  1  0  0  0  0
  8  9  2  0  0  0  0
  8 40  1  0  0  0  0
  9 10  1  0  0  0  0
  9 41  1  0  0  0  0
 10 11  2  0  0  0  0
 10 42  1  0  0  0  0
 12 13  1  0  0  0  0
 12 43  1  0  0  0  0
 12 44  1  0  0  0  0
 13 14  2  0  0  0  0
 13 18  1  0  0  0  0
 14 15  1  0  0  0  0
 14 45  1  0  0  0  0
 15 16  2  0  0  0  0
 15 46  1  0  0  0  0
 16 17  1  0  0  0  0
 16 47  1  0  0  0  0
 17 18  2  0  0  0  0
 17 48  1  0  0  0  0
 19 20  1  0  0  0  0
 19 49  1  0  0  0  0
 19 50  1  0  0  0  0
 20 21  2  0  0  0  0
 20 25  1  0  0  0  0
 21 22  1  0  0  0  0
 21 51  1  0  0  0  0
 22 23  2  0  0  0  0
 22 52  1  0  0  0  0
 23 24  1  0  0  0  0
 23 53  1  0  0  0  0
 24 25  2  0  0  0  0
 24 54  1  0  0  0  0
 26 27  1  0  0  0  0
 26 55  1  0  0  0  0
 26 56  1  0  0  0  0
 27 28  2  0  0  0  0
 27 32  1  0  0  0  0
 28 29  1  0  0  0  0
 28 57  1  0  0  0  0
 29 30  2  0  0  0  0
 29 58  1  0  0  0  0
 30 31  1  0  0  0  0
 30 59  1  0  0  0  0
 31 32  2  0  0  0  0
 31 60  1  0  0  0  0
M  END
>  <Mol_ID>
5541

>  <Formula>
C26H28N6

>  <MolWeight>
424.54072

>  <Cat>
S6962

>  <Name>
TPEN

>  <Synonyms>
TPEDA

>  <Target>
Apoptosis related,NOS

>  <Form>
Free Base

>  <CAS>
16858-02-9

>  <URL>
https://www.selleckchem.com/products/tpen.html

$$$$
