TPX-0005.cdx
 OpenBabel08302520423D

 44 47  0  0  0  0  0  0  0  0999 V2000
   -1.5672   -0.8998    1.7222 C   0  0  0  0  0  0  0  0  0  0  0  0
   -0.9512   -1.3739    2.8840 C   0  0  0  0  0  0  0  0  0  0  0  0
    0.3953   -1.7865    2.8618 C   0  0  0  0  0  0  0  0  0  0  0  0
    1.1498   -1.4523    1.6920 C   0  0  0  0  0  0  0  0  0  0  0  0
    0.4920   -1.0266    0.5230 C   0  0  0  0  0  0  0  0  0  0  0  0
   -0.8809   -0.8118    0.5261 C   0  0  0  0  0  0  0  0  0  0  0  0
   -2.8719   -0.5938    1.7485 F   0  0  0  0  0  0  0  0  0  0  0  0
    0.7823   -3.0387    3.6932 C   0  0  2  0  0  0  0  0  0  0  0  0
   -0.3291   -3.7961    4.3086 N   0  0  0  0  0  0  0  0  0  0  0  0
   -0.6398   -5.0457    3.7962 C   0  0  0  0  0  0  0  0  0  0  0  0
   -2.0634   -5.5142    3.8095 C   0  0  0  0  0  0  0  0  0  0  0  0
   -2.5537   -5.5433    2.5533 C   0  0  0  0  0  0  0  0  0  0  0  0
   -1.6862   -5.3308    1.4694 N   0  0  0  0  0  0  0  0  0  0  0  0
   -0.2932   -5.3707    1.6592 C   0  0  0  0  0  0  0  0  0  0  0  0
    0.1915   -5.5986    2.9320 N   0  0  0  0  0  0  0  0  0  0  0  0
   -2.0036   -4.9477    0.2170 N   0  0  0  0  0  0  0  0  0  0  0  0
   -0.8284   -4.6133   -0.3229 C   0  0  0  0  0  0  0  0  0  0  0  0
    0.3040   -4.8962    0.5012 C   0  0  0  0  0  0  0  0  0  0  0  0
    1.6804   -4.5552    0.1215 C   0  0  0  0  0  0  0  0  0  0  0  0
    1.9386   -4.3342   -1.0645 O   0  0  0  0  0  0  0  0  0  0  0  0
    2.0741   -3.4053    4.4144 C   0  0  0  0  0  0  0  0  0  0  0  0
    2.5203   -1.5308    1.7617 O   0  0  0  0  0  0  0  0  0  0  0  0
    3.2342   -1.9522    0.5757 C   0  0  2  0  0  0  0  0  0  0  0  0
    3.7334   -3.3829    0.8892 C   0  0  0  0  0  0  0  0  0  0  0  0
    2.6198   -4.3234    1.0938 N   0  0  0  0  0  0  0  0  0  0  0  0
    4.3594   -0.9524    0.2514 C   0  0  0  0  0  0  0  0  0  0  0  0
   -1.5728   -1.5365    3.7560 H   0  0  0  0  0  0  0  0  0  0  0  0
    1.0090   -0.8699   -0.4187 H   0  0  0  0  0  0  0  0  0  0  0  0
   -1.4034   -0.5495   -0.3901 H   0  0  0  0  0  0  0  0  0  0  0  0
    0.9514   -3.5812    2.7814 H   0  0  0  0  0  0  0  0  0  0  0  0
   -0.5468   -3.6067    5.2781 H   0  0  0  0  0  0  0  0  0  0  0  0
   -2.6332   -5.6136    4.7204 H   0  0  0  0  0  0  0  0  0  0  0  0
   -3.5995   -5.6656    2.3149 H   0  0  0  0  0  0  0  0  0  0  0  0
   -0.8148   -4.1193   -1.2816 H   0  0  0  0  0  0  0  0  0  0  0  0
    2.3545   -4.4337    4.1204 H   0  0  0  0  0  0  0  0  0  0  0  0
    1.9358   -3.4812    5.4964 H   0  0  0  0  0  0  0  0  0  0  0  0
    2.9180   -2.7663    4.1687 H   0  0  0  0  0  0  0  0  0  0  0  0
    2.6101   -1.9972   -0.3184 H   0  0  0  0  0  0  0  0  0  0  0  0
    4.3830   -3.7543    0.0893 H   0  0  0  0  0  0  0  0  0  0  0  0
    4.3035   -3.3543    1.8266 H   0  0  0  0  0  0  0  0  0  0  0  0
    2.3427   -4.5041    2.0478 H   0  0  0  0  0  0  0  0  0  0  0  0
    4.4733   -0.8501   -0.8373 H   0  0  0  0  0  0  0  0  0  0  0  0
    4.1558    0.0499    0.6466 H   0  0  0  0  0  0  0  0  0  0  0  0
    5.3336   -1.2742    0.6333 H   0  0  0  0  0  0  0  0  0  0  0  0
  1  2  2  0  0  0  0
  1  7  1  0  0  0  0
  2  3  1  0  0  0  0
  2 27  1  0  0  0  0
  3  4  2  0  0  0  0
  3  8  1  0  0  0  0
  4  5  1  0  0  0  0
  4 22  1  0  0  0  0
  5  6  2  0  0  0  0
  5 28  1  0  0  0  0
  6  1  1  0  0  0  0
  6 29  1  0  0  0  0
  8  9  1  0  0  0  0
  8 30  1  6  0  0  0
  8 21  1  0  0  0  0
  9 10  1  0  0  0  0
  9 31  1  0  0  0  0
 11 12  2  0  0  0  0
 11 10  1  0  0  0  0
 11 32  1  0  0  0  0
 12 33  1  0  0  0  0
 13 14  1  0  0  0  0
 13 16  1  0  0  0  0
 13 12  1  0  0  0  0
 15 10  2  0  0  0  0
 15 14  1  0  0  0  0
 16 17  2  0  0  0  0
 17 18  1  0  0  0  0
 17 34  1  0  0  0  0
 18 14  2  0  0  0  0
 18 19  1  0  0  0  0
 19 20  2  0  0  0  0
 21 35  1  0  0  0  0
 21 36  1  0  0  0  0
 21 37  1  0  0  0  0
 22 23  1  0  0  0  0
 23 24  1  0  0  0  0
 23 38  1  6  0  0  0
 23 26  1  0  0  0  0
 24 25  1  0  0  0  0
 24 39  1  0  0  0  0
 24 40  1  0  0  0  0
 25 19  1  0  0  0  0
 25 41  1  0  0  0  0
 26 42  1  0  0  0  0
 26 43  1  0  0  0  0
 26 44  1  0  0  0  0
M  END
>  <Mol_ID>
4009

>  <Formula>
C18H18FN5O2

>  <MolWeight>
355.3662232

>  <Cat>
S8583

>  <Name>
Repotrectinib (TPX-0005)

>  <Synonyms>
N/A

>  <Target>
ALK,ROS1,Src,Trk receptor

>  <Form>
free base

>  <CAS>
1802220-02-5

>  <URL>
http://selleckchem.com/products/tpx-0005.html

$$$$
