trans,trans-Farnesol
 OpenBabel08302521373D

 42 41  0  0  0  0  0  0  0  0999 V2000
    1.2114    0.1815    0.0420 C   0  0  0  0  0  0  0  0  0  0  0  0
    0.5137    1.3074   -0.2177 C   0  0  0  0  0  0  0  0  0  0  0  0
    0.5294   -1.1602    0.2938 C   0  0  0  0  0  0  0  0  0  0  0  0
    2.7156    0.1229    0.0674 C   0  0  0  0  0  0  0  0  0  0  0  0
    1.0265    2.6732   -0.5730 C   0  0  0  0  0  0  0  0  0  0  0  0
   -1.0126   -1.1606    0.2703 C   0  0  0  0  0  0  0  0  0  0  0  0
    0.1200    3.7641    0.0209 C   0  0  0  0  0  0  0  0  0  0  0  0
   -1.5645   -2.5345    0.5171 C   0  0  0  0  0  0  0  0  0  0  0  0
    0.5299    5.1659   -0.3819 C   0  0  0  0  0  0  0  0  0  0  0  0
   -2.4184   -2.8895    1.4969 C   0  0  0  0  0  0  0  0  0  0  0  0
   -0.3178    5.9501   -1.0834 C   0  0  0  0  0  0  0  0  0  0  0  0
    1.8924    5.6047    0.0769 C   0  0  0  0  0  0  0  0  0  0  0  0
   -2.8118   -4.3274    1.6796 C   0  0  0  0  0  0  0  0  0  0  0  0
   -3.0141   -1.9170    2.4775 C   0  0  0  0  0  0  0  0  0  0  0  0
   -0.0830    7.3391   -1.5765 C   0  0  0  0  0  0  0  0  0  0  0  0
   -0.2356    7.3336   -2.9883 O   0  0  0  0  0  0  0  0  0  0  0  0
   -0.5743    1.2544   -0.2269 H   0  0  0  0  0  0  0  0  0  0  0  0
    0.8916   -1.8677   -0.4635 H   0  0  0  0  0  0  0  0  0  0  0  0
    0.8645   -1.5413    1.2673 H   0  0  0  0  0  0  0  0  0  0  0  0
    3.1756    1.0921    0.2797 H   0  0  0  0  0  0  0  0  0  0  0  0
    3.0668   -0.5590    0.8521 H   0  0  0  0  0  0  0  0  0  0  0  0
    3.1003   -0.2379   -0.8931 H   0  0  0  0  0  0  0  0  0  0  0  0
    2.0561    2.8194   -0.2375 H   0  0  0  0  0  0  0  0  0  0  0  0
    1.0204    2.7570   -1.6671 H   0  0  0  0  0  0  0  0  0  0  0  0
   -1.3857   -0.4517    1.0173 H   0  0  0  0  0  0  0  0  0  0  0  0
   -1.3727   -0.8231   -0.7092 H   0  0  0  0  0  0  0  0  0  0  0  0
   -0.9152    3.5743   -0.2930 H   0  0  0  0  0  0  0  0  0  0  0  0
    0.1183    3.6938    1.1166 H   0  0  0  0  0  0  0  0  0  0  0  0
   -1.2152   -3.2971   -0.1778 H   0  0  0  0  0  0  0  0  0  0  0  0
   -1.2975    5.5538   -1.3501 H   0  0  0  0  0  0  0  0  0  0  0  0
    2.1327    5.1581    1.0474 H   0  0  0  0  0  0  0  0  0  0  0  0
    2.6529    5.2911   -0.6450 H   0  0  0  0  0  0  0  0  0  0  0  0
    1.9617    6.6871    0.2112 H   0  0  0  0  0  0  0  0  0  0  0  0
   -2.5566   -4.6555    2.6928 H   0  0  0  0  0  0  0  0  0  0  0  0
   -3.8871   -4.4562    1.5259 H   0  0  0  0  0  0  0  0  0  0  0  0
   -2.2877   -4.9884    0.9810 H   0  0  0  0  0  0  0  0  0  0  0  0
   -2.2343   -1.4350    3.0749 H   0  0  0  0  0  0  0  0  0  0  0  0
   -3.5959   -1.1473    1.9565 H   0  0  0  0  0  0  0  0  0  0  0  0
   -3.6960   -2.4197    3.1709 H   0  0  0  0  0  0  0  0  0  0  0  0
   -0.8257    8.0205   -1.1510 H   0  0  0  0  0  0  0  0  0  0  0  0
    0.9105    7.7293   -1.3467 H   0  0  0  0  0  0  0  0  0  0  0  0
    0.3672    6.6495   -3.3270 H   0  0  0  0  0  0  0  0  0  0  0  0
  1  2  2  0  0  0  0
  1  3  1  0  0  0  0
  1  4  1  0  0  0  0
  2  5  1  0  0  0  0
  2 17  1  0  0  0  0
  3  6  1  0  0  0  0
  3 18  1  0  0  0  0
  3 19  1  0  0  0  0
  4 20  1  0  0  0  0
  4 21  1  0  0  0  0
  4 22  1  0  0  0  0
  5  7  1  0  0  0  0
  5 23  1  0  0  0  0
  5 24  1  0  0  0  0
  6  8  1  0  0  0  0
  6 25  1  0  0  0  0
  6 26  1  0  0  0  0
  7  9  1  0  0  0  0
  7 27  1  0  0  0  0
  7 28  1  0  0  0  0
  8 10  2  0  0  0  0
  8 29  1  0  0  0  0
  9 11  2  0  0  0  0
  9 12  1  0  0  0  0
 10 13  1  0  0  0  0
 10 14  1  0  0  0  0
 11 15  1  0  0  0  0
 11 30  1  0  0  0  0
 12 31  1  0  0  0  0
 12 32  1  0  0  0  0
 12 33  1  0  0  0  0
 13 34  1  0  0  0  0
 13 35  1  0  0  0  0
 13 36  1  0  0  0  0
 14 37  1  0  0  0  0
 14 38  1  0  0  0  0
 14 39  1  0  0  0  0
 15 16  1  0  0  0  0
 15 40  1  0  0  0  0
 15 41  1  0  0  0  0
 16 42  1  0  0  0  0
M  END
>  <Mol_ID>
7388

>  <Formula>
C15H26O

>  <MolWeight>
222.36634

>  <Cat>
E4460

>  <Name>
trans,trans-Farnesol

>  <Target>
Others

>  <Form>
Free base

>  <CAS>
106-28-5

>  <URL>
https://www.selleckchem.com/products/trans-trans-farnesol.html

$$$$
