trans-2-Methyl-2-pentenoic Acid
 OpenBabel08302520393D

 18 17  0  0  0  0  0  0  0  0999 V2000
    1.0740    0.0797    0.0456 C   0  0  0  0  0  0  0  0  0  0  0  0
    0.4125   -0.1039    1.2089 C   0  0  0  0  0  0  0  0  0  0  0  0
    0.2172    0.2650   -1.1706 C   0  0  0  0  0  0  0  0  0  0  0  0
    2.5656    0.1078   -0.0888 C   0  0  0  0  0  0  0  0  0  0  0  0
    0.9895   -0.3211    2.5807 C   0  0  0  0  0  0  0  0  0  0  0  0
    0.8908    0.4424   -2.3241 O   0  0  0  0  0  0  0  0  0  0  0  0
   -1.0050    0.2575   -1.1464 O   0  0  0  0  0  0  0  0  0  0  0  0
    0.5548    0.7697    3.5481 C   0  0  0  0  0  0  0  0  0  0  0  0
   -0.6809   -0.1124    1.1935 H   0  0  0  0  0  0  0  0  0  0  0  0
    3.0960   -0.0282    0.8549 H   0  0  0  0  0  0  0  0  0  0  0  0
    2.9023   -0.6934   -0.7551 H   0  0  0  0  0  0  0  0  0  0  0  0
    2.8931    1.0708   -0.4935 H   0  0  0  0  0  0  0  0  0  0  0  0
    0.6480   -1.2935    2.9538 H   0  0  0  0  0  0  0  0  0  0  0  0
    2.0803   -0.3617    2.5734 H   0  0  0  0  0  0  0  0  0  0  0  0
    1.8601    0.4364   -2.2796 H   0  0  0  0  0  0  0  0  0  0  0  0
   -0.5244    0.7299    3.7281 H   0  0  0  0  0  0  0  0  0  0  0  0
    1.0610    0.6413    4.5105 H   0  0  0  0  0  0  0  0  0  0  0  0
    0.8029    1.7656    3.1653 H   0  0  0  0  0  0  0  0  0  0  0  0
  1  2  2  0  0  0  0
  1  3  1  0  0  0  0
  1  4  1  0  0  0  0
  2  5  1  0  0  0  0
  2  9  1  0  0  0  0
  3  6  1  0  0  0  0
  3  7  2  0  0  0  0
  4 10  1  0  0  0  0
  4 11  1  0  0  0  0
  4 12  1  0  0  0  0
  5  8  1  0  0  0  0
  5 13  1  0  0  0  0
  5 14  1  0  0  0  0
  6 15  1  0  0  0  0
  8 16  1  0  0  0  0
  8 17  1  0  0  0  0
  8 18  1  0  0  0  0
M  END
>  <Mol_ID>
3664

>  <Formula>
C6H10O2

>  <MolWeight>
114.1424

>  <Cat>
S6327

>  <Name>
trans-2-Methyl-2-pentenoic Acid

>  <Synonyms>
(E)-2-Methyl-2-pentenoic Acid, strawberry acid

>  <Target>
Others

>  <Form>
free base

>  <CAS>
16957-70-3

>  <URL>
http://www.selleck.cn/products/trans-2-methyl-2-pentenoic-acid.html

$$$$
