Trans-4-Phenyl-3-buten-2-one
 OpenBabel08302521313D

 21 21  0  0  0  0  0  0  0  0999 V2000
    1.2068    0.0984    0.3947 O   0  0  0  0  0  0  0  0  0  0  0  0
    5.2036    2.5895   -0.6201 C   0  0  0  0  0  0  0  0  0  0  0  0
    4.8209    3.7874   -0.0013 C   0  0  0  0  0  0  0  0  0  0  0  0
    6.3604    2.5833   -1.4136 C   0  0  0  0  0  0  0  0  0  0  0  0
    4.4885    1.3204   -0.3956 C   0  0  0  0  0  0  0  0  0  0  0  0
    5.5664    4.9553   -0.1853 C   0  0  0  0  0  0  0  0  0  0  0  0
    7.1081    3.7510   -1.5939 C   0  0  0  0  0  0  0  0  0  0  0  0
    6.7094    4.9358   -0.9807 C   0  0  0  0  0  0  0  0  0  0  0  0
    3.1791    1.2360   -0.1191 C   0  0  0  0  0  0  0  0  0  0  0  0
    2.4140   -0.0077    0.1676 C   0  0  0  0  0  0  0  0  0  0  0  0
    3.0805   -1.3584    0.2054 C   0  0  0  0  0  0  0  0  0  0  0  0
    3.9503    3.8321    0.6466 H   0  0  0  0  0  0  0  0  0  0  0  0
    6.6950    1.6690   -1.8984 H   0  0  0  0  0  0  0  0  0  0  0  0
    5.1146    0.4380   -0.4664 H   0  0  0  0  0  0  0  0  0  0  0  0
    5.2596    5.8767    0.3013 H   0  0  0  0  0  0  0  0  0  0  0  0
    8.0028    3.7324   -2.2105 H   0  0  0  0  0  0  0  0  0  0  0  0
    7.2951    5.8424   -1.1145 H   0  0  0  0  0  0  0  0  0  0  0  0
    2.5530    2.1235   -0.0785 H   0  0  0  0  0  0  0  0  0  0  0  0
    2.9569   -1.7829    1.2057 H   0  0  0  0  0  0  0  0  0  0  0  0
    2.6008   -2.0073   -0.5326 H   0  0  0  0  0  0  0  0  0  0  0  0
    4.1457   -1.3269   -0.0162 H   0  0  0  0  0  0  0  0  0  0  0  0
  1 10  2  0  0  0  0
  2  3  2  0  0  0  0
  2  4  1  0  0  0  0
  2  5  1  0  0  0  0
  3  6  1  0  0  0  0
  3 12  1  0  0  0  0
  4  7  2  0  0  0  0
  4 13  1  0  0  0  0
  5  9  2  0  0  0  0
  5 14  1  0  0  0  0
  6  8  2  0  0  0  0
  6 15  1  0  0  0  0
  7  8  1  0  0  0  0
  7 16  1  0  0  0  0
  8 17  1  0  0  0  0
  9 10  1  0  0  0  0
  9 18  1  0  0  0  0
 10 11  1  0  0  0  0
 11 19  1  0  0  0  0
 11 20  1  0  0  0  0
 11 21  1  0  0  0  0
M  END
>  <Mol_ID>
5806

>  <Formula>
C10H10O

>  <MolWeight>
146.1858

>  <Cat>
S9478

>  <Name>
Trans-4-Phenyl-3-buten-2-one

>  <Synonyms>
trans-Benzylideneacetone, trans-Benzalacetone, trans-Benzylideneacetone

>  <Target>
Phospholipase (e.g. PLA)

>  <Form>
Free Base

>  <CAS>
1896-62-4

>  <URL>
http://www.selleckchem.com/products/trans-4-phenyl-3-buten-2-one.html

$$$$
