Tranilast.cdx
 OpenBabel08302519583D

 41 42  0  0  0  0  0  0  0  0999 V2000
   -0.4536   -0.8489   -0.9595 C   0  0  0  0  0  0  0  0  0  0  0  0
    0.7937   -1.2014   -0.4205 C   0  0  0  0  0  0  0  0  0  0  0  0
    1.4827   -0.2674    0.3663 C   0  0  0  0  0  0  0  0  0  0  0  0
    0.9631    1.0011    0.6121 C   0  0  0  0  0  0  0  0  0  0  0  0
   -0.2452    1.3829    0.0329 C   0  0  0  0  0  0  0  0  0  0  0  0
   -0.9381    0.4576   -0.7585 C   0  0  0  0  0  0  0  0  0  0  0  0
   -0.8611    2.6826    0.3148 C   0  0  0  0  0  0  0  0  0  0  0  0
   -0.1647    3.8150    0.4932 C   0  0  0  0  0  0  0  0  0  0  0  0
   -0.8905    5.0582    0.8432 C   0  0  0  0  0  0  0  0  0  0  0  0
   -0.0435    6.1246    1.0137 N   0  0  0  0  0  0  0  0  0  0  0  0
   -2.1147    5.0738    0.9362 O   0  0  0  0  0  0  0  0  0  0  0  0
   -0.3931    7.4301    1.4539 C   0  0  0  0  0  0  0  0  0  0  0  0
   -1.6449    7.7039    2.0227 C   0  0  0  0  0  0  0  0  0  0  0  0
   -1.9779    8.9892    2.4517 C   0  0  0  0  0  0  0  0  0  0  0  0
   -1.0587   10.0265    2.3308 C   0  0  0  0  0  0  0  0  0  0  0  0
    0.2047    9.7753    1.7941 C   0  0  0  0  0  0  0  0  0  0  0  0
    0.5397    8.4859    1.3426 C   0  0  0  0  0  0  0  0  0  0  0  0
    1.8815    8.2274    0.7558 C   0  0  0  0  0  0  0  0  0  0  0  0
    2.4026    9.2612    0.0634 O   0  0  0  0  0  0  0  0  0  0  0  0
    2.4359    7.1420    0.8393 O   0  0  0  0  0  0  0  0  0  0  0  0
   -1.1779   -1.7843   -1.6510 O   0  0  0  0  0  0  0  0  0  0  0  0
   -2.5957   -1.6170   -1.6616 C   0  0  0  0  0  0  0  0  0  0  0  0
    1.4523   -2.3987   -0.4656 O   0  0  0  0  0  0  0  0  0  0  0  0
    1.1571   -3.3339   -1.4879 C   0  0  0  0  0  0  0  0  0  0  0  0
    2.4334   -0.5463    0.8151 H   0  0  0  0  0  0  0  0  0  0  0  0
    1.5069    1.6681    1.2758 H   0  0  0  0  0  0  0  0  0  0  0  0
   -1.8764    0.7705   -1.2077 H   0  0  0  0  0  0  0  0  0  0  0  0
   -1.9479    2.6890    0.3904 H   0  0  0  0  0  0  0  0  0  0  0  0
    0.9128    3.8524    0.4099 H   0  0  0  0  0  0  0  0  0  0  0  0
    0.9492    6.0002    0.7943 H   0  0  0  0  0  0  0  0  0  0  0  0
   -2.3837    6.9222    2.1747 H   0  0  0  0  0  0  0  0  0  0  0  0
   -2.9543    9.1705    2.8961 H   0  0  0  0  0  0  0  0  0  0  0  0
   -1.3191   11.0214    2.6828 H   0  0  0  0  0  0  0  0  0  0  0  0
    0.9217   10.5914    1.7612 H   0  0  0  0  0  0  0  0  0  0  0  0
    1.7865    9.9943   -0.1198 H   0  0  0  0  0  0  0  0  0  0  0  0
   -2.9854   -1.1471   -0.7505 H   0  0  0  0  0  0  0  0  0  0  0  0
   -2.8936   -1.0446   -2.5460 H   0  0  0  0  0  0  0  0  0  0  0  0
   -3.0529   -2.6087   -1.7261 H   0  0  0  0  0  0  0  0  0  0  0  0
    0.1159   -3.6579   -1.4798 H   0  0  0  0  0  0  0  0  0  0  0  0
    1.4642   -2.9581   -2.4686 H   0  0  0  0  0  0  0  0  0  0  0  0
    1.7537   -4.2285   -1.2760 H   0  0  0  0  0  0  0  0  0  0  0  0
  1  2  2  0  0  0  0
  1 21  1  0  0  0  0
  2  3  1  0  0  0  0
  2 23  1  0  0  0  0
  3  4  2  0  0  0  0
  3 25  1  0  0  0  0
  4  5  1  0  0  0  0
  4 26  1  0  0  0  0
  5  6  2  0  0  0  0
  5  7  1  0  0  0  0
  6  1  1  0  0  0  0
  6 27  1  0  0  0  0
  7  8  2  0  0  0  0
  7 28  1  0  0  0  0
  8  9  1  0  0  0  0
  8 29  1  0  0  0  0
  9 10  1  0  0  0  0
  9 11  2  0  0  0  0
 10 12  1  0  0  0  0
 10 30  1  0  0  0  0
 12 13  2  0  0  0  0
 13 14  1  0  0  0  0
 13 31  1  0  0  0  0
 14 15  2  0  0  0  0
 14 32  1  0  0  0  0
 15 16  1  0  0  0  0
 15 33  1  0  0  0  0
 16 17  2  0  0  0  0
 16 34  1  0  0  0  0
 17 12  1  0  0  0  0
 17 18  1  0  0  0  0
 18 19  1  0  0  0  0
 18 20  2  0  0  0  0
 19 35  1  0  0  0  0
 21 22  1  0  0  0  0
 22 36  1  0  0  0  0
 22 37  1  0  0  0  0
 22 38  1  0  0  0  0
 23 24  1  0  0  0  0
 24 39  1  0  0  0  0
 24 40  1  0  0  0  0
 24 41  1  0  0  0  0
M  END
>  <Mol_ID>
257

>  <Formula>
C18H17NO5

>  <MolWeight>
327.33128

>  <Cat>
S1439

>  <Name>
Tranilast (SB 252218)

>  <Synonyms>
SB 252218, MK-341, Rizaben, MK 341, Tranpro

>  <Target>
Immunology & Inflammation related

>  <Form>
free base

>  <CAS>
53902-12-8

>  <URL>
http://selleckchem.com/products/Tranilast.html

$$$$
