trans-Cyclohexane-1,2-diol
 OpenBabel08302521363D

 20 20  0  0  0  0  0  0  0  0999 V2000
   -1.7001    1.0696    0.6121 O   0  0  0  0  0  0  0  0  0  0  0  0
    1.7575    0.9135   -0.6665 O   0  0  0  0  0  0  0  0  0  0  0  0
   -0.6723    0.8612   -0.3583 C   0  0  1  0  0  0  0  0  0  0  0  0
    0.7178    0.8207    0.3099 C   0  0  1  0  0  0  0  0  0  0  0  0
   -0.9666   -0.4213   -1.1452 C   0  0  0  0  0  0  0  0  0  0  0  0
    0.9133   -0.4492    1.1454 C   0  0  0  0  0  0  0  0  0  0  0  0
   -0.7633   -1.6806   -0.3034 C   0  0  0  0  0  0  0  0  0  0  0  0
    0.6154   -1.7212    0.3506 C   0  0  0  0  0  0  0  0  0  0  0  0
   -1.6845    0.3433    1.2553 H   0  0  0  0  0  0  0  0  0  0  0  0
    1.7059    0.1473   -1.2604 H   0  0  0  0  0  0  0  0  0  0  0  0
   -0.7138    1.7072   -1.0527 H   0  0  0  0  0  0  0  0  0  0  0  0
    0.8253    1.6874    0.9702 H   0  0  0  0  0  0  0  0  0  0  0  0
   -1.9999   -0.4042   -1.5104 H   0  0  0  0  0  0  0  0  0  0  0  0
   -0.3134   -0.4693   -2.0260 H   0  0  0  0  0  0  0  0  0  0  0  0
    0.2584   -0.4150    2.0246 H   0  0  0  0  0  0  0  0  0  0  0  0
    1.9449   -0.4974    1.5128 H   0  0  0  0  0  0  0  0  0  0  0  0
   -1.5359   -1.7340    0.4724 H   0  0  0  0  0  0  0  0  0  0  0  0
   -0.8946   -2.5667   -0.9353 H   0  0  0  0  0  0  0  0  0  0  0  0
    0.6794   -2.5903    1.0158 H   0  0  0  0  0  0  0  0  0  0  0  0
    1.3809   -1.8628   -0.4213 H   0  0  0  0  0  0  0  0  0  0  0  0
  1  9  1  0  0  0  0
  2 10  1  0  0  0  0
  3  1  1  0  0  0  0
  3  4  1  0  0  0  0
  3  5  1  0  0  0  0
  3 11  1  6  0  0  0
  4  2  1  0  0  0  0
  4  6  1  0  0  0  0
  4 12  1  1  0  0  0
  5  7  1  0  0  0  0
  5 13  1  0  0  0  0
  5 14  1  0  0  0  0
  6  8  1  0  0  0  0
  6 15  1  0  0  0  0
  6 16  1  0  0  0  0
  7  8  1  0  0  0  0
  7 17  1  0  0  0  0
  7 18  1  0  0  0  0
  8 19  1  0  0  0  0
  8 20  1  0  0  0  0
M  END
>  <Mol_ID>
7174

>  <Formula>
C6H12O2

>  <MolWeight>
116.15828

>  <Cat>
E4172

>  <Name>
trans-Cyclohexane-1,2-diol

>  <Synonyms>
trans-1,2-Cyclohexanediol

>  <Target>
Others

>  <Form>
free base

>  <CAS>
1460-57-7

>  <URL>
https://www.selleckchem.com/products/trans-cyclohexane-1-2-diol.html

$$$$
