TRC102 (methoxyamine hydrochloride)
 OpenBabel08302521373D

  8  7  0  0  0  0  0  0  0  0999 V2000
    0.9581   -0.0594    0.3005 O   0  0  0  0  0  0  0  0  0  0  0  0
    0.4417   -1.2422   -0.3071 C   0  0  0  0  0  0  0  0  0  0  0  0
    2.4004   -0.0343    0.0973 N   0  0  0  0  0  0  0  0  0  0  0  0
    0.7112   -1.2809   -1.3678 H   0  0  0  0  0  0  0  0  0  0  0  0
    0.8161   -2.1290    0.2134 H   0  0  0  0  0  0  0  0  0  0  0  0
   -0.6480   -1.2219   -0.2247 H   0  0  0  0  0  0  0  0  0  0  0  0
    2.5261    0.9012   -0.2940 H   0  0  0  0  0  0  0  0  0  0  0  0
    2.7345    0.0222    1.0605 H   0  0  0  0  0  0  0  0  0  0  0  0
  1  2  1  0  0  0  0
  1  3  1  0  0  0  0
  2  4  1  0  0  0  0
  2  5  1  0  0  0  0
  2  6  1  0  0  0  0
  3  7  1  0  0  0  0
  3  8  1  0  0  0  0
M  END
>  <Mol_ID>
7554

>  <Formula>
CH6ClNO

>  <MolWeight>
83.51744

>  <Cat>
E1503

>  <Name>
TRC102 (methoxyamine hydrochloride)

>  <Synonyms>
O-Methylhydroxylamine hydrochloride

>  <Target>
Others

>  <Form>
free base

>  <CAS>
593-56-6

>  <URL>
https://www.selleckchem.com/products/trc102-methoxyamine-hydrochloride.html

$$$$
