TRECATOR (ethionamide).cdx
 OpenBabel08302521203D

 21 21  0  0  0  0  0  0  0  0999 V2000
    0.7227    1.2414   -0.0039 C   0  0  0  0  0  0  0  0  0  0  0  0
   -0.6570    1.1364   -0.0108 C   0  0  0  0  0  0  0  0  0  0  0  0
   -1.3215   -0.0373   -0.0152 N   0  0  0  0  0  0  0  0  0  0  0  0
   -0.5870   -1.1733   -0.0118 C   0  0  0  0  0  0  0  0  0  0  0  0
    0.8040   -1.1625   -0.0073 C   0  0  0  0  0  0  0  0  0  0  0  0
    1.4740    0.0646   -0.0053 C   0  0  0  0  0  0  0  0  0  0  0  0
    2.9635    0.1231    0.0156 C   0  0  0  0  0  0  0  0  0  0  0  0
    3.9718   -1.0202    0.7056 S   0  0  0  0  0  0  0  0  0  0  0  0
    3.5538    1.2052   -0.5869 N   0  0  0  0  0  0  0  0  0  0  0  0
   -1.3388   -2.4789    0.0363 C   0  0  0  0  0  0  0  0  0  0  0  0
   -1.5872   -2.9241    1.4692 C   0  0  0  0  0  0  0  0  0  0  0  0
    1.1819    2.2213    0.0329 H   0  0  0  0  0  0  0  0  0  0  0  0
   -1.2867    2.0218   -0.0030 H   0  0  0  0  0  0  0  0  0  0  0  0
    1.3459   -2.1029   -0.0047 H   0  0  0  0  0  0  0  0  0  0  0  0
    3.0519    1.8944   -1.1323 H   0  0  0  0  0  0  0  0  0  0  0  0
    4.5667    1.2397   -0.6212 H   0  0  0  0  0  0  0  0  0  0  0  0
   -2.2973   -2.3627   -0.4829 H   0  0  0  0  0  0  0  0  0  0  0  0
   -0.7808   -3.2513   -0.5060 H   0  0  0  0  0  0  0  0  0  0  0  0
   -2.1919   -2.1897    2.0121 H   0  0  0  0  0  0  0  0  0  0  0  0
   -2.1207   -3.8796    1.4823 H   0  0  0  0  0  0  0  0  0  0  0  0
   -0.6467   -3.0530    2.0155 H   0  0  0  0  0  0  0  0  0  0  0  0
  1  2  2  0  0  0  0
  1 12  1  0  0  0  0
  2  3  1  0  0  0  0
  2 13  1  0  0  0  0
  3  4  2  0  0  0  0
  4  5  1  0  0  0  0
  4 10  1  0  0  0  0
  5  6  2  0  0  0  0
  5 14  1  0  0  0  0
  6  1  1  0  0  0  0
  6  7  1  0  0  0  0
  7  8  2  0  0  0  0
  7  9  1  0  0  0  0
  9 15  1  0  0  0  0
  9 16  1  0  0  0  0
 10 11  1  0  0  0  0
 10 17  1  0  0  0  0
 10 18  1  0  0  0  0
 11 19  1  0  0  0  0
 11 20  1  0  0  0  0
 11 21  1  0  0  0  0
M  END
>  <Mol_ID>
436

>  <Formula>
C8H10N2S

>  <MolWeight>
166.2434

>  <Cat>
S1777

>  <Name>
Ethionamide

>  <Synonyms>
Bayer 5312

>  <Target>
Antibiotics

>  <Form>
free base

>  <CAS>
536-33-4

>  <URL>
http://selleckchem.com/products/Ethionamide.html

$$$$
