Treosulfan
 OpenBabel08302521303D

 30 29  0  0  0  0  0  0  0  0999 V2000
   -1.0881   -0.3956    1.7399 S   0  0  0  0  0  0  0  0  0  0  0  0
    4.9716   -3.2439   -1.1440 S   0  0  0  0  0  0  0  0  0  0  0  0
    0.5039   -0.3958    1.3993 O   0  0  0  0  0  0  0  0  0  0  0  0
    3.4678   -3.5027   -0.5679 O   0  0  0  0  0  0  0  0  0  0  0  0
    1.8469   -3.8301    1.7575 O   0  0  0  0  0  0  0  0  0  0  0  0
    0.1621   -1.9706   -0.9955 O   0  0  0  0  0  0  0  0  0  0  0  0
   -1.2677   -0.5529    3.1663 O   0  0  0  0  0  0  0  0  0  0  0  0
   -1.7403   -1.2792    0.7920 O   0  0  0  0  0  0  0  0  0  0  0  0
    4.9559   -3.4428   -2.5768 O   0  0  0  0  0  0  0  0  0  0  0  0
    5.4944   -2.0348   -0.5418 O   0  0  0  0  0  0  0  0  0  0  0  0
    0.9988   -2.8391    1.1664 C   0  0  2  0  0  0  0  0  0  0  0  0
    1.0913   -2.8683   -0.3826 C   0  0  2  0  0  0  0  0  0  0  0  0
    1.3032   -1.4858    1.8373 C   0  0  0  0  0  0  0  0  0  0  0  0
    2.4751   -2.5719   -0.9783 C   0  0  0  0  0  0  0  0  0  0  0  0
   -1.4291    1.2926    1.2923 C   0  0  0  0  0  0  0  0  0  0  0  0
    5.7761   -4.6395   -0.3928 C   0  0  0  0  0  0  0  0  0  0  0  0
    1.5615   -4.6999    1.4267 H   0  0  0  0  0  0  0  0  0  0  0  0
   -0.7012   -2.0406   -0.5350 H   0  0  0  0  0  0  0  0  0  0  0  0
   -0.0267   -3.1155    1.4369 H   0  0  0  0  0  0  0  0  0  0  0  0
    0.8163   -3.8823   -0.6996 H   0  0  0  0  0  0  0  0  0  0  0  0
    2.3513   -1.2168    1.6662 H   0  0  0  0  0  0  0  0  0  0  0  0
    1.2092   -1.5866    2.9262 H   0  0  0  0  0  0  0  0  0  0  0  0
    2.3918   -2.6150   -2.0724 H   0  0  0  0  0  0  0  0  0  0  0  0
    2.7845   -1.5505   -0.7288 H   0  0  0  0  0  0  0  0  0  0  0  0
   -1.0784    1.9480    2.0918 H   0  0  0  0  0  0  0  0  0  0  0  0
   -0.9244    1.5232    0.3524 H   0  0  0  0  0  0  0  0  0  0  0  0
   -2.5088    1.4001    1.1665 H   0  0  0  0  0  0  0  0  0  0  0  0
    5.6692   -4.5743    0.6898 H   0  0  0  0  0  0  0  0  0  0  0  0
    5.3296   -5.5569   -0.7808 H   0  0  0  0  0  0  0  0  0  0  0  0
    6.8341   -4.5993   -0.6664 H   0  0  0  0  0  0  0  0  0  0  0  0
  1  3  1  0  0  0  0
  1  7  2  0  0  0  0
  1  8  2  0  0  0  0
  1 15  1  0  0  0  0
  2  4  1  0  0  0  0
  2  9  2  0  0  0  0
  2 10  2  0  0  0  0
  2 16  1  0  0  0  0
  3 13  1  0  0  0  0
  4 14  1  0  0  0  0
  5 17  1  0  0  0  0
  6 18  1  0  0  0  0
 11 13  1  0  0  0  0
 11 19  1  1  0  0  0
 11 12  1  0  0  0  0
 11  5  1  0  0  0  0
 12  6  1  0  0  0  0
 12 14  1  0  0  0  0
 12 20  1  6  0  0  0
 13 21  1  0  0  0  0
 13 22  1  0  0  0  0
 14 23  1  0  0  0  0
 14 24  1  0  0  0  0
 15 25  1  0  0  0  0
 15 26  1  0  0  0  0
 15 27  1  0  0  0  0
 16 28  1  0  0  0  0
 16 29  1  0  0  0  0
 16 30  1  0  0  0  0
M  END
>  <Mol_ID>
5539

>  <Formula>
C6H14O8S2

>  <MolWeight>
278.30056

>  <Cat>
S6958

>  <Name>
Treosulfan

>  <Synonyms>
NSC 39069, Treosulphan

>  <Target>
DNA alkylator

>  <Form>
Free Base

>  <CAS>
299-75-2

>  <URL>
https://www.selleckchem.com/products/treosulfan.html

$$$$
