Treprostinil sodium
 OpenBabel08302521243D

 62 64  0  0  0  0  0  0  0  0999 V2000
   10.4285    9.3517   -2.0038 C   0  0  0  0  0  0  0  0  0  0  0  0
   10.2516   10.3633   -1.0634 C   0  0  0  0  0  0  0  0  0  0  0  0
    9.4608   10.1416    0.0595 C   0  0  0  0  0  0  0  0  0  0  0  0
    8.7902    8.9027    0.2238 C   0  0  0  0  0  0  0  0  0  0  0  0
    8.9713    7.8854   -0.7344 C   0  0  0  0  0  0  0  0  0  0  0  0
    9.7982    8.1214   -1.8375 C   0  0  0  0  0  0  0  0  0  0  0  0
    9.2999   11.0344    1.0902 O   0  0  0  0  0  0  0  0  0  0  0  0
   10.1345   12.1861    1.1549 C   0  0  0  0  0  0  0  0  0  0  0  0
   11.5439   11.9285    1.6741 C   0  0  0  0  0  0  0  0  0  0  0  0
   11.7741   10.6516    2.0625 O   0  0  0  0  0  0  0  0  0  0  0  0
   12.4031   12.7969    1.7608 O   0  0  0  0  0  0  0  0  0  0  0  0
    7.9545    8.6698    1.4541 C   0  0  0  0  0  0  0  0  0  0  0  0
    7.0328    7.4627    1.3971 C   0  0  2  0  0  0  0  0  0  0  0  0
    7.6201    6.2367    0.7046 C   0  0  2  0  0  0  0  0  0  0  0  0
    8.2304    6.5726   -0.6665 C   0  0  0  0  0  0  0  0  0  0  0  0
    5.7373    7.7064    0.6266 C   0  0  0  0  0  0  0  0  0  0  0  0
    5.1784    6.2996    0.4373 C   0  0  2  0  0  0  0  0  0  0  0  0
    6.3784    5.3218    0.5498 C   0  0  2  0  0  0  0  0  0  0  0  0
    6.2298    4.3932    1.7730 C   0  0  0  0  0  0  0  0  0  0  0  0
    4.9547    3.5407    1.7475 C   0  0  0  0  0  0  0  0  0  0  0  0
    4.8301    2.6537    0.5053 C   0  0  2  0  0  0  0  0  0  0  0  0
    3.5315    1.8465    0.4668 C   0  0  0  0  0  0  0  0  0  0  0  0
    2.2703    2.7117    0.5215 C   0  0  0  0  0  0  0  0  0  0  0  0
    1.0112    1.8546    0.4467 C   0  0  0  0  0  0  0  0  0  0  0  0
   -0.2491    2.7147    0.5488 C   0  0  0  0  0  0  0  0  0  0  0  0
   -1.4986    1.8539    0.4850 C   0  0  0  0  0  0  0  0  0  0  0  0
    5.9372    1.7518    0.4661 O   0  0  0  0  0  0  0  0  0  0  0  0
    4.5131    6.1695   -0.8081 O   0  0  0  0  0  0  0  0  0  0  0  0
   11.0584    9.5233   -2.8713 H   0  0  0  0  0  0  0  0  0  0  0  0
   10.7536   11.3059   -1.2448 H   0  0  0  0  0  0  0  0  0  0  0  0
    9.9450    7.3462   -2.5879 H   0  0  0  0  0  0  0  0  0  0  0  0
   10.1752   12.7228    0.2007 H   0  0  0  0  0  0  0  0  0  0  0  0
    9.6675   12.8635    1.8789 H   0  0  0  0  0  0  0  0  0  0  0  0
   10.9862   10.0876    1.9184 H   0  0  0  0  0  0  0  0  0  0  0  0
    7.3403    9.5530    1.6668 H   0  0  0  0  0  0  0  0  0  0  0  0
    8.6423    8.5361    2.2994 H   0  0  0  0  0  0  0  0  0  0  0  0
    6.7655    7.2015    2.4315 H   0  0  0  0  0  0  0  0  0  0  0  0
    8.3956    5.7697    1.3258 H   0  0  0  0  0  0  0  0  0  0  0  0
    7.4491    6.6117   -1.4379 H   0  0  0  0  0  0  0  0  0  0  0  0
    8.9024    5.7532   -0.9544 H   0  0  0  0  0  0  0  0  0  0  0  0
    5.9003    8.2089   -0.3325 H   0  0  0  0  0  0  0  0  0  0  0  0
    5.0473    8.3295    1.2055 H   0  0  0  0  0  0  0  0  0  0  0  0
    4.4284    6.1329    1.2143 H   0  0  0  0  0  0  0  0  0  0  0  0
    6.4853    4.7049   -0.3491 H   0  0  0  0  0  0  0  0  0  0  0  0
    7.1073    3.7398    1.8441 H   0  0  0  0  0  0  0  0  0  0  0  0
    6.2168    4.9870    2.6957 H   0  0  0  0  0  0  0  0  0  0  0  0
    4.9435    2.9206    2.6516 H   0  0  0  0  0  0  0  0  0  0  0  0
    4.0902    4.2036    1.8245 H   0  0  0  0  0  0  0  0  0  0  0  0
    4.8789    3.2571   -0.4064 H   0  0  0  0  0  0  0  0  0  0  0  0
    3.5264    1.2488   -0.4540 H   0  0  0  0  0  0  0  0  0  0  0  0
    3.5247    1.1205    1.2903 H   0  0  0  0  0  0  0  0  0  0  0  0
    2.2395    3.2784    1.4584 H   0  0  0  0  0  0  0  0  0  0  0  0
    2.2837    3.4413   -0.2981 H   0  0  0  0  0  0  0  0  0  0  0  0
    0.9991    1.2914   -0.4946 H   0  0  0  0  0  0  0  0  0  0  0  0
    1.0211    1.1232    1.2632 H   0  0  0  0  0  0  0  0  0  0  0  0
   -0.2446    3.2688    1.4974 H   0  0  0  0  0  0  0  0  0  0  0  0
   -0.2648    3.4522   -0.2574 H   0  0  0  0  0  0  0  0  0  0  0  0
   -1.5003    1.1086    1.2833 H   0  0  0  0  0  0  0  0  0  0  0  0
   -2.3899    2.4810    0.6014 H   0  0  0  0  0  0  0  0  0  0  0  0
   -1.5746    1.3422   -0.4779 H   0  0  0  0  0  0  0  0  0  0  0  0
    5.8613    1.1573    1.2328 H   0  0  0  0  0  0  0  0  0  0  0  0
    5.1762    6.2075   -1.5188 H   0  0  0  0  0  0  0  0  0  0  0  0
  1  2  2  0  0  0  0
  1 29  1  0  0  0  0
  2  3  1  0  0  0  0
  2 30  1  0  0  0  0
  3  4  2  0  0  0  0
  3  7  1  0  0  0  0
  4  5  1  0  0  0  0
  4 12  1  0  0  0  0
  5  6  2  0  0  0  0
  6  1  1  0  0  0  0
  6 31  1  0  0  0  0
  7  8  1  0  0  0  0
  8  9  1  0  0  0  0
  8 32  1  0  0  0  0
  8 33  1  0  0  0  0
  9 10  1  0  0  0  0
  9 11  2  0  0  0  0
 10 34  1  0  0  0  0
 12 35  1  0  0  0  0
 12 36  1  0  0  0  0
 13 12  1  0  0  0  0
 13 14  1  0  0  0  0
 13 16  1  0  0  0  0
 13 37  1  1  0  0  0
 14 15  1  0  0  0  0
 14 38  1  1  0  0  0
 15  5  1  0  0  0  0
 15 39  1  0  0  0  0
 15 40  1  0  0  0  0
 16 17  1  0  0  0  0
 16 41  1  0  0  0  0
 16 42  1  0  0  0  0
 17 18  1  0  0  0  0
 17 43  1  1  0  0  0
 17 28  1  0  0  0  0
 18 14  1  0  0  0  0
 18 19  1  0  0  0  0
 18 44  1  6  0  0  0
 19 20  1  0  0  0  0
 19 45  1  0  0  0  0
 19 46  1  0  0  0  0
 20 47  1  0  0  0  0
 20 48  1  0  0  0  0
 21 27  1  0  0  0  0
 21 49  1  6  0  0  0
 21 22  1  0  0  0  0
 21 20  1  0  0  0  0
 22 23  1  0  0  0  0
 22 50  1  0  0  0  0
 22 51  1  0  0  0  0
 23 24  1  0  0  0  0
 23 52  1  0  0  0  0
 23 53  1  0  0  0  0
 24 25  1  0  0  0  0
 24 54  1  0  0  0  0
 24 55  1  0  0  0  0
 25 26  1  0  0  0  0
 25 56  1  0  0  0  0
 25 57  1  0  0  0  0
 26 58  1  0  0  0  0
 26 59  1  0  0  0  0
 26 60  1  0  0  0  0
 27 61  1  0  0  0  0
 28 62  1  0  0  0  0
M  END
>  <Mol_ID>
5064

>  <Formula>
C23H33NaO5

>  <MolWeight>
412.49489

>  <Cat>
S0325

>  <Name>
Treprostinil sodium

>  <Synonyms>
UT-15, Remodulin, Orenitram, Tyvaso, Trevyent

>  <Target>
Prostaglandin Receptor

>  <Form>
sodium

>  <CAS>
289480-64-4

>  <URL>
http://www.selleckchem.com/products/treprostinil-sodium.html

$$$$
