TRi-1
 OpenBabel08302521273D

 30 31  0  0  0  0  0  0  0  0999 V2000
    0.8920    0.0324    0.1005 S   0  0  0  0  0  0  0  0  0  0  0  0
    2.3402    0.1397    0.1158 O   0  0  0  0  0  0  0  0  0  0  0  0
    0.2045   -0.7845   -0.8799 O   0  0  0  0  0  0  0  0  0  0  0  0
   -1.6171    3.7673    2.1644 O   0  0  0  0  0  0  0  0  0  0  0  0
    0.9716    1.2068   -2.8775 O   0  5  0  0  0  0  0  0  0  0  0  0
    2.4553    2.7591   -2.3968 O   0  0  0  0  0  0  0  0  0  0  0  0
   -0.4801    2.0580    1.0284 N   0  0  0  0  0  0  0  0  0  0  0  0
    1.4208    2.1177   -2.1770 N   0  3  0  0  0  0  0  0  0  0  0  0
    0.2677    1.6842   -0.0444 C   0  0  0  0  0  0  0  0  0  0  0  0
    0.3915   -0.5786    1.7071 C   0  0  0  0  0  0  0  0  0  0  0  0
    0.6205    2.5429   -1.0599 C   0  0  0  0  0  0  0  0  0  0  0  0
    1.2006   -0.3591    2.8260 C   0  0  0  0  0  0  0  0  0  0  0  0
   -0.8224   -1.2655    1.8267 C   0  0  0  0  0  0  0  0  0  0  0  0
    0.1801    3.8690   -0.9989 C   0  0  0  0  0  0  0  0  0  0  0  0
   -0.8871    3.3388    1.0786 C   0  0  0  0  0  0  0  0  0  0  0  0
   -0.5889    4.2720    0.0957 C   0  0  0  0  0  0  0  0  0  0  0  0
    0.7746   -0.8123    4.0764 C   0  0  0  0  0  0  0  0  0  0  0  0
   -1.2387   -1.7147    3.0797 C   0  0  0  0  0  0  0  0  0  0  0  0
   -0.4426   -1.4858    4.2026 C   0  0  0  0  0  0  0  0  0  0  0  0
   -1.8344    2.7317    3.1246 C   0  0  0  0  0  0  0  0  0  0  0  0
    2.1480    0.1669    2.7388 H   0  0  0  0  0  0  0  0  0  0  0  0
   -1.4510   -1.4448    0.9572 H   0  0  0  0  0  0  0  0  0  0  0  0
    0.4329    4.5852   -1.7789 H   0  0  0  0  0  0  0  0  0  0  0  0
   -0.9420    5.2974    0.1834 H   0  0  0  0  0  0  0  0  0  0  0  0
    1.3912   -0.6430    4.9564 H   0  0  0  0  0  0  0  0  0  0  0  0
   -2.1830   -2.2447    3.1809 H   0  0  0  0  0  0  0  0  0  0  0  0
   -0.7691   -1.8397    5.1781 H   0  0  0  0  0  0  0  0  0  0  0  0
   -2.4445    1.9257    2.7008 H   0  0  0  0  0  0  0  0  0  0  0  0
   -0.8865    2.3401    3.5124 H   0  0  0  0  0  0  0  0  0  0  0  0
   -2.3837    3.1609    3.9670 H   0  0  0  0  0  0  0  0  0  0  0  0
  1  2  2  0  0  0  0
  1  3  2  0  0  0  0
  1  9  1  0  0  0  0
  1 10  1  0  0  0  0
  4 15  1  0  0  0  0
  4 20  1  0  0  0  0
  5  8  1  0  0  0  0
  6  8  2  0  0  0  0
  7  9  2  0  0  0  0
  7 15  1  0  0  0  0
  8 11  1  0  0  0  0
  9 11  1  0  0  0  0
 10 12  2  0  0  0  0
 10 13  1  0  0  0  0
 11 14  2  0  0  0  0
 12 17  1  0  0  0  0
 12 21  1  0  0  0  0
 13 18  2  0  0  0  0
 13 22  1  0  0  0  0
 14 16  1  0  0  0  0
 14 23  1  0  0  0  0
 15 16  2  0  0  0  0
 16 24  1  0  0  0  0
 17 19  2  0  0  0  0
 17 25  1  0  0  0  0
 18 19  1  0  0  0  0
 18 26  1  0  0  0  0
 19 27  1  0  0  0  0
 20 28  1  0  0  0  0
 20 29  1  0  0  0  0
 20 30  1  0  0  0  0
M  CHG  2   5  -1   8   1
M  END
>  <Mol_ID>
5360

>  <Formula>
C12H9ClN2O5S

>  <MolWeight>
328.72826

>  <Cat>
S0267

>  <Name>
TRi-1

>  <Synonyms>
HUN20688, TXNRD1 inhibitor 1

>  <Target>
Thioredoxin Reductase

>  <Form>
Free Base

>  <CAS>
246020-68-8

>  <URL>
https://www.selleckchem.com/products/tri-1.html

$$$$
