Triacetin.cdx
 OpenBabel08302520003D

 29 28  0  0  0  0  0  0  0  0999 V2000
    0.8610   -0.1073   -0.0341 C   0  0  0  0  0  0  0  0  0  0  0  0
    0.5921   -0.2587    1.4731 C   0  0  0  0  0  0  0  0  0  0  0  0
    0.5753    1.2879   -0.6118 C   0  0  0  0  0  0  0  0  0  0  0  0
    0.2546   -1.1867   -0.7986 O   0  0  0  0  0  0  0  0  0  0  0  0
   -0.7731   -0.0320    1.8610 O   0  0  0  0  0  0  0  0  0  0  0  0
    0.7939    1.3288   -2.0380 O   0  0  0  0  0  0  0  0  0  0  0  0
   -1.0753   -1.1805   -1.0638 C   0  0  0  0  0  0  0  0  0  0  0  0
   -1.0988    1.2410    2.2058 C   0  0  0  0  0  0  0  0  0  0  0  0
    2.0826    1.4489   -2.4471 C   0  0  0  0  0  0  0  0  0  0  0  0
   -1.4410   -2.3596   -1.9133 C   0  0  0  0  0  0  0  0  0  0  0  0
   -1.8808   -0.3420   -0.6879 O   0  0  0  0  0  0  0  0  0  0  0  0
   -2.5293    1.3379    2.6414 C   0  0  0  0  0  0  0  0  0  0  0  0
   -0.3335    2.1954    2.1685 O   0  0  0  0  0  0  0  0  0  0  0  0
    2.1441    1.5793   -3.9396 C   0  0  0  0  0  0  0  0  0  0  0  0
    3.0592    1.4816   -1.7121 O   0  0  0  0  0  0  0  0  0  0  0  0
    1.9337   -0.2931   -0.1652 H   0  0  0  0  0  0  0  0  0  0  0  0
    0.8101   -1.2918    1.7675 H   0  0  0  0  0  0  0  0  0  0  0  0
    1.2674    0.3815    2.0541 H   0  0  0  0  0  0  0  0  0  0  0  0
   -0.4648    1.5877   -0.4669 H   0  0  0  0  0  0  0  0  0  0  0  0
    1.1924    2.0482   -0.1167 H   0  0  0  0  0  0  0  0  0  0  0  0
   -2.1550   -2.9881   -1.3737 H   0  0  0  0  0  0  0  0  0  0  0  0
   -1.8747   -2.0053   -2.8525 H   0  0  0  0  0  0  0  0  0  0  0  0
   -0.5598   -2.9628   -2.1495 H   0  0  0  0  0  0  0  0  0  0  0  0
   -2.5671    1.7725    3.6441 H   0  0  0  0  0  0  0  0  0  0  0  0
   -3.0834    1.9610    1.9353 H   0  0  0  0  0  0  0  0  0  0  0  0
   -2.9961    0.3498    2.6805 H   0  0  0  0  0  0  0  0  0  0  0  0
    2.2452    2.6329   -4.2098 H   0  0  0  0  0  0  0  0  0  0  0  0
    2.9945    1.0063   -4.3181 H   0  0  0  0  0  0  0  0  0  0  0  0
    1.2382    1.1727   -4.3994 H   0  0  0  0  0  0  0  0  0  0  0  0
  1  2  1  0  0  0  0
  1  3  1  0  0  0  0
  1  4  1  0  0  0  0
  1 16  1  0  0  0  0
  2  5  1  0  0  0  0
  2 17  1  0  0  0  0
  2 18  1  0  0  0  0
  3  6  1  0  0  0  0
  3 19  1  0  0  0  0
  3 20  1  0  0  0  0
  4  7  1  0  0  0  0
  5  8  1  0  0  0  0
  6  9  1  0  0  0  0
  7 10  1  0  0  0  0
  7 11  2  0  0  0  0
  8 12  1  0  0  0  0
  8 13  2  0  0  0  0
  9 14  1  0  0  0  0
  9 15  2  0  0  0  0
 10 21  1  0  0  0  0
 10 22  1  0  0  0  0
 10 23  1  0  0  0  0
 12 24  1  0  0  0  0
 12 25  1  0  0  0  0
 12 26  1  0  0  0  0
 14 27  1  0  0  0  0
 14 28  1  0  0  0  0
 14 29  1  0  0  0  0
M  END
>  <Mol_ID>
2679

>  <Formula>
C9H14O6

>  <MolWeight>
218.20386

>  <Cat>
S4581

>  <Name>
Triacetin

>  <Synonyms>
Glycerol triacetate, Glyceryl triacetate, Glycerin triacetate, 1,2,3-Triacetoxypropane

>  <Target>
Fungal

>  <Form>
free base

>  <CAS>
102-76-1

>  <URL>
http://selleckchem.com/products/triacetin.html

$$$$
