Triethylenetetramine Dihydrochloride
 OpenBabel08302520403D

 28 27  0  0  0  0  0  0  0  0999 V2000
    1.0380    0.0320    0.0225 C   0  0  0  0  0  0  0  0  0  0  0  0
    0.8527    1.0044   -1.1629 C   0  0  0  0  0  0  0  0  0  0  0  0
    0.3921   -1.2597   -0.2294 N   0  0  0  0  0  0  0  0  0  0  0  0
    1.4478    2.3167   -0.8626 N   0  0  0  0  0  0  0  0  0  0  0  0
    0.6099   -2.2277    0.8576 C   0  0  0  0  0  0  0  0  0  0  0  0
    1.2725    3.2385   -1.9930 C   0  0  0  0  0  0  0  0  0  0  0  0
   -0.0226   -1.8621    2.2185 C   0  0  0  0  0  0  0  0  0  0  0  0
    1.8942    4.6167   -1.6934 C   0  0  0  0  0  0  0  0  0  0  0  0
   -1.4644   -1.6205    2.1268 N   0  0  0  0  0  0  0  0  0  0  0  0
    1.7125    5.5429   -2.8129 N   0  0  0  0  0  0  0  0  0  0  0  0
    0.6151    0.4960    0.9201 H   0  0  0  0  0  0  0  0  0  0  0  0
    2.1111   -0.1185    0.1928 H   0  0  0  0  0  0  0  0  0  0  0  0
    1.3243    0.5763   -2.0557 H   0  0  0  0  0  0  0  0  0  0  0  0
   -0.2184    1.1240   -1.3689 H   0  0  0  0  0  0  0  0  0  0  0  0
   -0.6108   -1.1413   -0.3637 H   0  0  0  0  0  0  0  0  0  0  0  0
    0.9936    2.7119   -0.0396 H   0  0  0  0  0  0  0  0  0  0  0  0
    0.1865   -3.1856    0.5288 H   0  0  0  0  0  0  0  0  0  0  0  0
    1.6836   -2.4028    0.9899 H   0  0  0  0  0  0  0  0  0  0  0  0
    1.7517    2.8196   -2.8864 H   0  0  0  0  0  0  0  0  0  0  0  0
    0.2041    3.3651   -2.2092 H   0  0  0  0  0  0  0  0  0  0  0  0
    0.1535   -2.6813    2.9241 H   0  0  0  0  0  0  0  0  0  0  0  0
    0.4633   -0.9738    2.6361 H   0  0  0  0  0  0  0  0  0  0  0  0
    1.4290    5.0526   -0.8020 H   0  0  0  0  0  0  0  0  0  0  0  0
    2.9658    4.5095   -1.4888 H   0  0  0  0  0  0  0  0  0  0  0  0
   -1.8128   -1.3387    3.0415 H   0  0  0  0  0  0  0  0  0  0  0  0
   -1.6327   -0.8327    1.5040 H   0  0  0  0  0  0  0  0  0  0  0  0
    2.2116    6.4095   -2.6126 H   0  0  0  0  0  0  0  0  0  0  0  0
    2.1512    5.1536   -3.6467 H   0  0  0  0  0  0  0  0  0  0  0  0
  1  2  1  0  0  0  0
  1  3  1  0  0  0  0
  1 11  1  0  0  0  0
  1 12  1  0  0  0  0
  2  4  1  0  0  0  0
  2 13  1  0  0  0  0
  2 14  1  0  0  0  0
  3  5  1  0  0  0  0
  3 15  1  0  0  0  0
  4  6  1  0  0  0  0
  4 16  1  0  0  0  0
  5  7  1  0  0  0  0
  5 17  1  0  0  0  0
  5 18  1  0  0  0  0
  6  8  1  0  0  0  0
  6 19  1  0  0  0  0
  6 20  1  0  0  0  0
  7  9  1  0  0  0  0
  7 21  1  0  0  0  0
  7 22  1  0  0  0  0
  8 10  1  0  0  0  0
  8 23  1  0  0  0  0
  8 24  1  0  0  0  0
  9 25  1  0  0  0  0
  9 26  1  0  0  0  0
 10 27  1  0  0  0  0
 10 28  1  0  0  0  0
M  END
>  <Mol_ID>
3848

>  <Formula>
C6H20Cl2N4

>  <MolWeight>
219.1558

>  <Cat>
S6585

>  <Name>
Triethylenetetramine Dihydrochloride

>  <Synonyms>
TETA 2HCl, Trientine Dihydrochloride

>  <Target>
Others

>  <Form>
Dihydrochloride

>  <CAS>
38260-01-4

>  <URL>
http://www.selleck.cn/products/triethylenetetramine-dihydrochloride.html

$$$$
