Trifluoperazine
 OpenBabel08302521223D

 52 55  0  0  0  0  0  0  0  0999 V2000
    1.2246   -0.3981    0.5913 C   0  0  0  0  0  0  0  0  0  0  0  0
    0.0943   -1.2436    0.6241 N   0  0  0  0  0  0  0  0  0  0  0  0
    1.0961    0.9822    0.3392 C   0  0  0  0  0  0  0  0  0  0  0  0
    2.5126   -0.9572    0.6067 C   0  0  0  0  0  0  0  0  0  0  0  0
   -1.0794   -0.9462   -0.1019 C   0  0  0  0  0  0  0  0  0  0  0  0
   -0.0344   -2.1824    1.7635 C   0  0  0  0  0  0  0  0  0  0  0  0
   -0.5156    1.7599    0.2864 S   0  0  0  0  0  0  0  0  0  0  0  0
    2.2330    1.7699    0.1127 C   0  0  0  0  0  0  0  0  0  0  0  0
    3.6539   -0.1837    0.3397 C   0  0  0  0  0  0  0  0  0  0  0  0
   -1.4744    0.3860   -0.3452 C   0  0  0  0  0  0  0  0  0  0  0  0
   -1.7955   -1.9765   -0.7308 C   0  0  0  0  0  0  0  0  0  0  0  0
   -0.7247   -1.5332    2.9772 C   0  0  0  0  0  0  0  0  0  0  0  0
    3.5007    1.1881    0.0966 C   0  0  0  0  0  0  0  0  0  0  0  0
    5.0158   -0.8289    0.2428 C   0  0  0  0  0  0  0  0  0  0  0  0
   -2.6039    0.6598   -1.1249 C   0  0  0  0  0  0  0  0  0  0  0  0
   -2.8853   -1.6961   -1.5549 C   0  0  0  0  0  0  0  0  0  0  0  0
   -0.8020   -2.4814    4.1897 C   0  0  0  0  0  0  0  0  0  0  0  0
    5.0063   -2.1641    0.5119 F   0  0  0  0  0  0  0  0  0  0  0  0
    5.5589   -0.7063   -1.0002 F   0  0  0  0  0  0  0  0  0  0  0  0
    5.9164   -0.2805    1.1018 F   0  0  0  0  0  0  0  0  0  0  0  0
   -3.3040   -0.3809   -1.7342 C   0  0  0  0  0  0  0  0  0  0  0  0
    0.5016   -3.0169    4.5903 N   0  0  0  0  0  0  0  0  0  0  0  0
    1.4122   -1.9953    5.1412 C   0  0  0  0  0  0  0  0  0  0  0  0
    0.3849   -4.1194    5.5647 C   0  0  0  0  0  0  0  0  0  0  0  0
    2.8063   -2.6014    5.4310 C   0  0  0  0  0  0  0  0  0  0  0  0
    1.7733   -4.7364    5.8742 C   0  0  0  0  0  0  0  0  0  0  0  0
    2.8040   -3.7778    6.3234 N   0  0  0  0  0  0  0  0  0  0  0  0
    2.6155   -3.3951    7.7183 C   0  0  0  0  0  0  0  0  0  0  0  0
    2.6279   -2.0330    0.7364 H   0  0  0  0  0  0  0  0  0  0  0  0
   -0.5974   -3.0747    1.4652 H   0  0  0  0  0  0  0  0  0  0  0  0
    0.9512   -2.5560    2.0585 H   0  0  0  0  0  0  0  0  0  0  0  0
    2.1307    2.8325   -0.0976 H   0  0  0  0  0  0  0  0  0  0  0  0
   -1.4524   -3.0047   -0.6473 H   0  0  0  0  0  0  0  0  0  0  0  0
   -0.2152   -0.6036    3.2553 H   0  0  0  0  0  0  0  0  0  0  0  0
   -1.7479   -1.2429    2.7069 H   0  0  0  0  0  0  0  0  0  0  0  0
    4.3691    1.8039   -0.1369 H   0  0  0  0  0  0  0  0  0  0  0  0
   -2.9243    1.6856   -1.2893 H   0  0  0  0  0  0  0  0  0  0  0  0
   -3.3898   -2.5050   -2.0785 H   0  0  0  0  0  0  0  0  0  0  0  0
   -1.4578   -3.3150    3.9059 H   0  0  0  0  0  0  0  0  0  0  0  0
   -1.2917   -1.9711    5.0292 H   0  0  0  0  0  0  0  0  0  0  0  0
   -4.1547   -0.1620   -2.3728 H   0  0  0  0  0  0  0  0  0  0  0  0
    1.5567   -1.1794    4.4251 H   0  0  0  0  0  0  0  0  0  0  0  0
    0.9933   -1.5531    6.0546 H   0  0  0  0  0  0  0  0  0  0  0  0
   -0.0861   -3.7715    6.4934 H   0  0  0  0  0  0  0  0  0  0  0  0
   -0.2525   -4.9130    5.1564 H   0  0  0  0  0  0  0  0  0  0  0  0
    3.2500   -2.9076    4.4738 H   0  0  0  0  0  0  0  0  0  0  0  0
    3.4708   -1.8235    5.8253 H   0  0  0  0  0  0  0  0  0  0  0  0
    2.1446   -5.2173    4.9589 H   0  0  0  0  0  0  0  0  0  0  0  0
    1.6645   -5.5470    6.6059 H   0  0  0  0  0  0  0  0  0  0  0  0
    1.6484   -2.9216    7.9111 H   0  0  0  0  0  0  0  0  0  0  0  0
    2.7032   -4.2745    8.3661 H   0  0  0  0  0  0  0  0  0  0  0  0
    3.4037   -2.7015    8.0317 H   0  0  0  0  0  0  0  0  0  0  0  0
  1  2  1  0  0  0  0
  1  3  1  0  0  0  0
  1  4  2  0  0  0  0
  2  5  1  0  0  0  0
  2  6  1  0  0  0  0
  3  7  1  0  0  0  0
  3  8  2  0  0  0  0
  4  9  1  0  0  0  0
  4 29  1  0  0  0  0
  5 10  2  0  0  0  0
  5 11  1  0  0  0  0
  6 12  1  0  0  0  0
  6 30  1  0  0  0  0
  6 31  1  0  0  0  0
  7 10  1  0  0  0  0
  8 13  1  0  0  0  0
  8 32  1  0  0  0  0
  9 14  1  0  0  0  0
  9 13  2  0  0  0  0
 10 15  1  0  0  0  0
 11 16  2  0  0  0  0
 11 33  1  0  0  0  0
 12 17  1  0  0  0  0
 12 34  1  0  0  0  0
 12 35  1  0  0  0  0
 13 36  1  0  0  0  0
 14 18  1  0  0  0  0
 14 19  1  0  0  0  0
 14 20  1  0  0  0  0
 15 21  2  0  0  0  0
 15 37  1  0  0  0  0
 16 21  1  0  0  0  0
 16 38  1  0  0  0  0
 17 22  1  0  0  0  0
 17 39  1  0  0  0  0
 17 40  1  0  0  0  0
 21 41  1  0  0  0  0
 22 23  1  0  0  0  0
 22 24  1  0  0  0  0
 23 25  1  0  0  0  0
 23 42  1  0  0  0  0
 23 43  1  0  0  0  0
 24 26  1  0  0  0  0
 24 44  1  0  0  0  0
 24 45  1  0  0  0  0
 25 27  1  0  0  0  0
 25 46  1  0  0  0  0
 25 47  1  0  0  0  0
 26 27  1  0  0  0  0
 26 48  1  0  0  0  0
 26 49  1  0  0  0  0
 27 28  1  0  0  0  0
 28 50  1  0  0  0  0
 28 51  1  0  0  0  0
 28 52  1  0  0  0  0
M  END
>  <Mol_ID>
4711

>  <Formula>
C21H24F3N3S

>  <MolWeight>
407.4955696

>  <Cat>
S5856

>  <Name>
Trifluoperazine

>  <Synonyms>
NSC-17474, RP-7623, SKF-5019

>  <Target>
Dopamine Receptor

>  <Form>
Free Base

>  <CAS>
117-89-5

>  <URL>
http://www.selleck.cn/products/trifluoperazine.html

$$$$
