Triglycidyl Isocyanurate (Teroxirone)
 OpenBabel08302521233D

 36 39  0  0  0  0  0  0  0  0999 V2000
   -0.6636    1.1895    0.0983 N   0  0  0  0  0  0  0  0  0  0  0  0
   -1.3670    0.0017    0.0669 C   0  0  0  0  0  0  0  0  0  0  0  0
   -0.6151   -1.1544    0.0882 N   0  0  0  0  0  0  0  0  0  0  0  0
    0.7563   -1.1614    0.2087 C   0  0  0  0  0  0  0  0  0  0  0  0
    1.3854    0.0529    0.0461 N   0  0  0  0  0  0  0  0  0  0  0  0
    0.7124    1.2552    0.0457 C   0  0  0  0  0  0  0  0  0  0  0  0
   -2.5968   -0.0258    0.0298 O   0  0  0  0  0  0  0  0  0  0  0  0
    1.3881   -2.1925    0.4591 O   0  0  0  0  0  0  0  0  0  0  0  0
    1.3113    2.3310    0.0159 O   0  0  0  0  0  0  0  0  0  0  0  0
    2.8422    0.0776   -0.0616 C   0  0  0  0  0  0  0  0  0  0  0  0
    4.9228    0.3960    1.1966 O   0  0  0  0  0  0  0  0  0  0  0  0
    3.4858    0.3968    1.2534 C   0  0  3  0  0  0  0  0  0  0  0  0
    4.3108   -0.6121    2.0110 C   0  0  0  0  0  0  0  0  0  0  0  0
   -1.3029   -2.4415    0.0138 C   0  0  0  0  0  0  0  0  0  0  0  0
   -2.3071   -4.2465    1.3336 O   0  0  0  0  0  0  0  0  0  0  0  0
   -1.6085   -2.9892    1.3746 C   0  0  3  0  0  0  0  0  0  0  0  0
   -3.0211   -3.1350    1.8864 C   0  0  0  0  0  0  0  0  0  0  0  0
   -1.4139    2.4439    0.0890 C   0  0  0  0  0  0  0  0  0  0  0  0
   -2.4395    4.1504    1.5215 O   0  0  0  0  0  0  0  0  0  0  0  0
   -1.7670    2.8788    1.4817 C   0  0  3  0  0  0  0  0  0  0  0  0
   -1.1470    4.0932    2.1357 C   0  0  0  0  0  0  0  0  0  0  0  0
    3.2026   -0.8801   -0.4507 H   0  0  0  0  0  0  0  0  0  0  0  0
    3.1249    0.8423   -0.7948 H   0  0  0  0  0  0  0  0  0  0  0  0
    3.0277    1.2208    1.7825 H   0  0  0  0  0  0  0  0  0  0  0  0
    4.3592   -1.6340    1.6580 H   0  0  0  0  0  0  0  0  0  0  0  0
    4.3980   -0.5001    3.0846 H   0  0  0  0  0  0  0  0  0  0  0  0
   -2.2195   -2.3361   -0.5786 H   0  0  0  0  0  0  0  0  0  0  0  0
   -0.6635   -3.1544   -0.5213 H   0  0  0  0  0  0  0  0  0  0  0  0
   -0.7868   -2.9211    2.0732 H   0  0  0  0  0  0  0  0  0  0  0  0
   -3.8437   -2.7342    1.3070 H   0  0  0  0  0  0  0  0  0  0  0  0
   -3.1848   -3.1373    2.9571 H   0  0  0  0  0  0  0  0  0  0  0  0
   -0.8361    3.2240   -0.4210 H   0  0  0  0  0  0  0  0  0  0  0  0
   -2.3371    2.3111   -0.4855 H   0  0  0  0  0  0  0  0  0  0  0  0
   -2.1870    2.0951    2.0964 H   0  0  0  0  0  0  0  0  0  0  0  0
   -0.3353    4.6114    1.6399 H   0  0  0  0  0  0  0  0  0  0  0  0
   -1.1175    4.1466    3.2172 H   0  0  0  0  0  0  0  0  0  0  0  0
  1  2  1  0  0  0  0
  1  6  1  0  0  0  0
  1 18  1  0  0  0  0
  2  3  1  0  0  0  0
  2  7  2  0  0  0  0
  3  4  1  0  0  0  0
  3 14  1  0  0  0  0
  4  5  1  0  0  0  0
  4  8  2  0  0  0  0
  5  6  1  0  0  0  0
  5 10  1  0  0  0  0
  6  9  2  0  0  0  0
 10 12  1  0  0  0  0
 10 22  1  0  0  0  0
 10 23  1  0  0  0  0
 11 12  1  0  0  0  0
 11 13  1  0  0  0  0
 12 13  1  0  0  0  0
 12 24  1  0  0  0  0
 13 25  1  0  0  0  0
 13 26  1  0  0  0  0
 14 16  1  0  0  0  0
 14 27  1  0  0  0  0
 14 28  1  0  0  0  0
 15 16  1  0  0  0  0
 15 17  1  0  0  0  0
 16 17  1  0  0  0  0
 16 29  1  0  0  0  0
 17 30  1  0  0  0  0
 17 31  1  0  0  0  0
 18 20  1  0  0  0  0
 18 32  1  0  0  0  0
 18 33  1  0  0  0  0
 19 20  1  0  0  0  0
 19 21  1  0  0  0  0
 20 21  1  0  0  0  0
 20 34  1  0  0  0  0
 21 35  1  0  0  0  0
 21 36  1  0  0  0  0
M  END
>  <Mol_ID>
4892

>  <Formula>
C12H15N3O6

>  <MolWeight>
297.264

>  <Cat>
S2427

>  <Name>
Triglycidyl Isocyanurate (Teroxirone)

>  <Synonyms>
Tris(2,3-epoxypropyl) Isocyanurate, TGI, TGIC

>  <Target>
DNA/RNA Synthesis,p53

>  <Form>
Free Base

>  <CAS>
2451-62-9

>  <URL>
http://www.selleckchem.com/products/triglycidyl-isocyanurat.html

$$$$
