Trihexyphenidyl (hydrochloride).cdx
 OpenBabel08302519503D

 53 55  0  0  0  0  0  0  0  0999 V2000
    0.8848    0.0214    0.1399 C   0  0  3  0  0  0  0  0  0  0  0  0
    0.5188   -0.4461    1.5753 C   0  0  0  0  0  0  0  0  0  0  0  0
    0.3761    1.4491   -0.2930 C   0  0  0  0  0  0  0  0  0  0  0  0
    0.4500   -1.0703   -0.8881 C   0  0  0  0  0  0  0  0  0  0  0  0
    2.3236    0.0792    0.0840 O   0  0  0  0  0  0  0  0  0  0  0  0
   -0.2453    0.3203    2.4740 C   0  0  0  0  0  0  0  0  0  0  0  0
    0.9949   -1.6826    2.0606 C   0  0  0  0  0  0  0  0  0  0  0  0
    0.9596    2.6114    0.5517 C   0  0  0  0  0  0  0  0  0  0  0  0
   -1.1568    1.4880   -0.5022 C   0  0  0  0  0  0  0  0  0  0  0  0
    0.7565   -0.7633   -2.3719 C   0  0  0  0  0  0  0  0  0  0  0  0
   -0.4747   -0.0850    3.7883 C   0  0  0  0  0  0  0  0  0  0  0  0
    0.7282   -2.1125    3.3680 C   0  0  0  0  0  0  0  0  0  0  0  0
    0.3121    3.9560    0.2391 C   0  0  0  0  0  0  0  0  0  0  0  0
   -1.7258    2.8816   -0.7203 C   0  0  0  0  0  0  0  0  0  0  0  0
    0.3067   -1.7786   -3.3466 N   0  0  0  0  0  0  0  0  0  0  0  0
    0.0078   -1.3020    4.2407 C   0  0  0  0  0  0  0  0  0  0  0  0
   -1.2059    3.8750    0.3051 C   0  0  0  0  0  0  0  0  0  0  0  0
    0.8928   -3.0990   -3.0953 C   0  0  0  0  0  0  0  0  0  0  0  0
   -1.1553   -1.8390   -3.4642 C   0  0  0  0  0  0  0  0  0  0  0  0
    0.5269   -4.0891   -4.2000 C   0  0  0  0  0  0  0  0  0  0  0  0
   -1.5788   -2.7919   -4.5833 C   0  0  0  0  0  0  0  0  0  0  0  0
   -0.9843   -4.1805   -4.3780 C   0  0  0  0  0  0  0  0  0  0  0  0
    0.8137    1.6544   -1.2805 H   0  0  0  0  0  0  0  0  0  0  0  0
    0.9811   -1.9974   -0.6486 H   0  0  0  0  0  0  0  0  0  0  0  0
   -0.6185   -1.2764   -0.7596 H   0  0  0  0  0  0  0  0  0  0  0  0
    2.6371    0.3325    0.9701 H   0  0  0  0  0  0  0  0  0  0  0  0
   -0.6811    1.2715    2.1952 H   0  0  0  0  0  0  0  0  0  0  0  0
    1.5862   -2.3361    1.4219 H   0  0  0  0  0  0  0  0  0  0  0  0
    0.8752    2.4411    1.6257 H   0  0  0  0  0  0  0  0  0  0  0  0
    2.0381    2.6912    0.3665 H   0  0  0  0  0  0  0  0  0  0  0  0
   -1.4266    0.8823   -1.3750 H   0  0  0  0  0  0  0  0  0  0  0  0
   -1.6858    1.0243    0.3349 H   0  0  0  0  0  0  0  0  0  0  0  0
    0.3064    0.1852   -2.6800 H   0  0  0  0  0  0  0  0  0  0  0  0
    1.8373   -0.6197   -2.4987 H   0  0  0  0  0  0  0  0  0  0  0  0
   -1.0403    0.5634    4.4617 H   0  0  0  0  0  0  0  0  0  0  0  0
    1.0953   -3.0775    3.7088 H   0  0  0  0  0  0  0  0  0  0  0  0
    0.6721    4.7085    0.9497 H   0  0  0  0  0  0  0  0  0  0  0  0
    0.6219    4.2854   -0.7600 H   0  0  0  0  0  0  0  0  0  0  0  0
   -2.8197    2.8349   -0.6718 H   0  0  0  0  0  0  0  0  0  0  0  0
   -1.4686    3.2251   -1.7298 H   0  0  0  0  0  0  0  0  0  0  0  0
   -0.1777   -1.6192    5.2627 H   0  0  0  0  0  0  0  0  0  0  0  0
   -1.5251    3.5762    1.3112 H   0  0  0  0  0  0  0  0  0  0  0  0
   -1.6377    4.8616    0.1090 H   0  0  0  0  0  0  0  0  0  0  0  0
    0.5513   -3.5091   -2.1373 H   0  0  0  0  0  0  0  0  0  0  0  0
    1.9855   -3.0181   -3.0496 H   0  0  0  0  0  0  0  0  0  0  0  0
   -1.5539   -0.8437   -3.6969 H   0  0  0  0  0  0  0  0  0  0  0  0
   -1.6184   -2.1641   -2.5252 H   0  0  0  0  0  0  0  0  0  0  0  0
    0.9302   -5.0778   -3.9537 H   0  0  0  0  0  0  0  0  0  0  0  0
    0.9916   -3.7784   -5.1444 H   0  0  0  0  0  0  0  0  0  0  0  0
   -1.2518   -2.3927   -5.5518 H   0  0  0  0  0  0  0  0  0  0  0  0
   -2.6720   -2.8591   -4.6178 H   0  0  0  0  0  0  0  0  0  0  0  0
   -1.2249   -4.8244   -5.2307 H   0  0  0  0  0  0  0  0  0  0  0  0
   -1.4311   -4.6413   -3.4883 H   0  0  0  0  0  0  0  0  0  0  0  0
  1  2  1  0  0  0  0
  1  3  1  0  0  0  0
  1  4  1  0  0  0  0
  1  5  1  0  0  0  0
  2  6  2  0  0  0  0
  2  7  1  0  0  0  0
  3  8  1  0  0  0  0
  3  9  1  0  0  0  0
  3 23  1  0  0  0  0
  4 10  1  0  0  0  0
  4 24  1  0  0  0  0
  4 25  1  0  0  0  0
  5 26  1  0  0  0  0
  6 11  1  0  0  0  0
  6 27  1  0  0  0  0
  7 12  2  0  0  0  0
  7 28  1  0  0  0  0
  8 13  1  0  0  0  0
  8 29  1  0  0  0  0
  8 30  1  0  0  0  0
  9 14  1  0  0  0  0
  9 31  1  0  0  0  0
  9 32  1  0  0  0  0
 10 15  1  0  0  0  0
 10 33  1  0  0  0  0
 10 34  1  0  0  0  0
 11 16  2  0  0  0  0
 11 35  1  0  0  0  0
 12 16  1  0  0  0  0
 12 36  1  0  0  0  0
 13 17  1  0  0  0  0
 13 37  1  0  0  0  0
 13 38  1  0  0  0  0
 14 17  1  0  0  0  0
 14 39  1  0  0  0  0
 14 40  1  0  0  0  0
 15 18  1  0  0  0  0
 15 19  1  0  0  0  0
 16 41  1  0  0  0  0
 17 42  1  0  0  0  0
 17 43  1  0  0  0  0
 18 20  1  0  0  0  0
 18 44  1  0  0  0  0
 18 45  1  0  0  0  0
 19 21  1  0  0  0  0
 19 46  1  0  0  0  0
 19 47  1  0  0  0  0
 20 22  1  0  0  0  0
 20 48  1  0  0  0  0
 20 49  1  0  0  0  0
 21 22  1  0  0  0  0
 21 50  1  0  0  0  0
 21 51  1  0  0  0  0
 22 52  1  0  0  0  0
 22 53  1  0  0  0  0
M  END
>  <Mol_ID>
1500

>  <Formula>
C20H32ClNO

>  <MolWeight>
337.92718

>  <Cat>
S4542

>  <Name>
Trihexyphenidyl hydrochloride

>  <Synonyms>
Benzhexol hydrochloride, Artane hydrochloride

>  <Target>
AChR

>  <Form>
hydrochloride

>  <CAS>
52-49-3

>  <URL>
http://selleckchem.com/products/trihexyphenidyl-hydrochloride.html

$$$$
