Trilaciclib dihydrochloride
 OpenBabel08302521453D

 63 68  0  0  0  0  0  0  0  0999 V2000
    1.5552    0.2879   -0.4556 O   0  0  0  0  0  0  0  0  0  0  0  0
    7.6756    4.8178    2.2476 N   0  0  0  0  0  0  0  0  0  0  0  0
   13.3436    0.1402    7.6489 C   0  0  0  0  0  0  0  0  0  0  0  0
    5.7912    0.3949    0.6244 C   0  0  0  0  0  0  0  0  0  0  0  0
    4.7076    1.4754    0.8699 N   0  0  0  0  0  0  0  0  0  0  0  0
    4.6592   -0.7704    0.8884 C   0  0  0  0  0  0  0  0  0  0  0  0
    6.5878    1.4774   -0.3592 C   0  0  0  0  0  0  0  0  0  0  0  0
    6.4329   -0.6840   -0.4701 C   0  0  0  0  0  0  0  0  0  0  0  0
    4.9617    2.7022    1.4702 C   0  0  0  0  0  0  0  0  0  0  0  0
    3.3708    1.4817    0.4916 C   0  0  0  0  0  0  0  0  0  0  0  0
    3.4810   -0.7776    0.0428 N   0  0  0  0  0  0  0  0  0  0  0  0
    5.8862    1.8971   -1.6514 C   0  0  0  0  0  0  0  0  0  0  0  0
    5.9718   -0.6101   -1.9342 C   0  0  0  0  0  0  0  0  0  0  0  0
    3.9669    3.5775    1.0757 C   0  0  0  0  0  0  0  0  0  0  0  0
    6.1122    3.0477    2.0507 N   0  0  0  0  0  0  0  0  0  0  0  0
    2.9023    2.7813    0.6035 C   0  0  0  0  0  0  0  0  0  0  0  0
    2.6927    0.3397   -0.0071 C   0  0  0  0  0  0  0  0  0  0  0  0
    5.2918    0.6935   -2.3344 C   0  0  0  0  0  0  0  0  0  0  0  0
    4.2701    4.9248    1.1907 C   0  0  0  0  0  0  0  0  0  0  0  0
    6.3898    4.3569    1.9791 C   0  0  0  0  0  0  0  0  0  0  0  0
    5.5088    5.3033    1.5851 N   0  0  0  0  0  0  0  0  0  0  0  0
    8.6737    4.1301    2.9394 C   0  0  0  0  0  0  0  0  0  0  0  0
    9.7292    4.8367    3.4978 C   0  0  0  0  0  0  0  0  0  0  0  0
    8.6079    2.7929    3.0667 N   0  0  0  0  0  0  0  0  0  0  0  0
   10.6594    4.1644    4.2975 C   0  0  0  0  0  0  0  0  0  0  0  0
    9.5215    2.1667    3.8352 C   0  0  0  0  0  0  0  0  0  0  0  0
   10.5687    2.7852    4.5020 C   0  0  0  0  0  0  0  0  0  0  0  0
   11.4712    2.1093    5.2974 N   0  0  0  0  0  0  0  0  0  0  0  0
   11.8060    0.7003    5.0391 C   0  0  0  0  0  0  0  0  0  0  0  0
   11.8115    2.6366    6.6294 C   0  0  0  0  0  0  0  0  0  0  0  0
   11.4119   -0.2132    6.2193 C   0  0  0  0  0  0  0  0  0  0  0  0
   11.4279    1.6342    7.7489 C   0  0  0  0  0  0  0  0  0  0  0  0
   11.8882    0.2417    7.5440 N   0  0  0  0  0  0  0  0  0  0  0  0
    7.6554    5.8196    2.3328 H   0  0  0  0  0  0  0  0  0  0  0  0
   13.8795    0.7439    6.9092 H   0  0  0  0  0  0  0  0  0  0  0  0
   13.6768    0.4562    8.6431 H   0  0  0  0  0  0  0  0  0  0  0  0
   13.6612   -0.9009    7.5253 H   0  0  0  0  0  0  0  0  0  0  0  0
    4.3006   -0.6678    1.9287 H   0  0  0  0  0  0  0  0  0  0  0  0
    5.0029   -1.8103    0.9024 H   0  0  0  0  0  0  0  0  0  0  0  0
    6.9249    2.3722    0.1613 H   0  0  0  0  0  0  0  0  0  0  0  0
    7.6088    1.1681   -0.6395 H   0  0  0  0  0  0  0  0  0  0  0  0
    7.5373   -0.6087   -0.4174 H   0  0  0  0  0  0  0  0  0  0  0  0
    6.4365   -1.7359   -0.1504 H   0  0  0  0  0  0  0  0  0  0  0  0
    3.0159   -1.6334   -0.2292 H   0  0  0  0  0  0  0  0  0  0  0  0
    6.6146    2.3946   -2.3016 H   0  0  0  0  0  0  0  0  0  0  0  0
    5.1155    2.6546   -1.4679 H   0  0  0  0  0  0  0  0  0  0  0  0
    6.8540   -0.7586   -2.5671 H   0  0  0  0  0  0  0  0  0  0  0  0
    5.2952   -1.4445   -2.1332 H   0  0  0  0  0  0  0  0  0  0  0  0
    1.9202    3.1189    0.2891 H   0  0  0  0  0  0  0  0  0  0  0  0
    5.3240    0.8236   -3.4268 H   0  0  0  0  0  0  0  0  0  0  0  0
    4.2273    0.6342   -2.0935 H   0  0  0  0  0  0  0  0  0  0  0  0
    3.6011    5.7141    0.8646 H   0  0  0  0  0  0  0  0  0  0  0  0
    9.8214    5.9075    3.3518 H   0  0  0  0  0  0  0  0  0  0  0  0
   11.4701    4.7319    4.7452 H   0  0  0  0  0  0  0  0  0  0  0  0
    9.3351    1.1027    3.9291 H   0  0  0  0  0  0  0  0  0  0  0  0
   11.3467    0.3168    4.1211 H   0  0  0  0  0  0  0  0  0  0  0  0
   12.8858    0.6389    4.8641 H   0  0  0  0  0  0  0  0  0  0  0  0
   12.8856    2.8415    6.6603 H   0  0  0  0  0  0  0  0  0  0  0  0
   11.3009    3.5844    6.8438 H   0  0  0  0  0  0  0  0  0  0  0  0
   10.3167   -0.2856    6.2603 H   0  0  0  0  0  0  0  0  0  0  0  0
   11.7670   -1.2327    6.0250 H   0  0  0  0  0  0  0  0  0  0  0  0
   10.3331    1.6123    7.8358 H   0  0  0  0  0  0  0  0  0  0  0  0
   11.7903    2.0069    8.7148 H   0  0  0  0  0  0  0  0  0  0  0  0
  1 17  2  0  0  0  0
  2 20  1  0  0  0  0
  2 22  1  0  0  0  0
  2 34  1  0  0  0  0
  3 33  1  0  0  0  0
  3 35  1  0  0  0  0
  3 36  1  0  0  0  0
  3 37  1  0  0  0  0
  4  5  1  0  0  0  0
  4  6  1  0  0  0  0
  4  7  1  0  0  0  0
  4  8  1  0  0  0  0
  5  9  1  0  0  0  0
  5 10  1  0  0  0  0
  6 11  1  0  0  0  0
  6 38  1  0  0  0  0
  6 39  1  0  0  0  0
  7 12  1  0  0  0  0
  7 40  1  0  0  0  0
  7 41  1  0  0  0  0
  8 13  1  0  0  0  0
  8 42  1  0  0  0  0
  8 43  1  0  0  0  0
  9 14  2  0  0  0  0
  9 15  1  0  0  0  0
 10 16  2  0  0  0  0
 10 17  1  0  0  0  0
 11 17  1  0  0  0  0
 11 44  1  0  0  0  0
 12 18  1  0  0  0  0
 12 45  1  0  0  0  0
 12 46  1  0  0  0  0
 13 18  1  0  0  0  0
 13 47  1  0  0  0  0
 13 48  1  0  0  0  0
 14 16  1  0  0  0  0
 14 19  1  0  0  0  0
 15 20  2  0  0  0  0
 16 49  1  0  0  0  0
 18 50  1  0  0  0  0
 18 51  1  0  0  0  0
 19 21  2  0  0  0  0
 19 52  1  0  0  0  0
 20 21  1  0  0  0  0
 22 23  2  0  0  0  0
 22 24  1  0  0  0  0
 23 25  1  0  0  0  0
 23 53  1  0  0  0  0
 24 26  2  0  0  0  0
 25 27  2  0  0  0  0
 25 54  1  0  0  0  0
 26 27  1  0  0  0  0
 26 55  1  0  0  0  0
 27 28  1  0  0  0  0
 28 29  1  0  0  0  0
 28 30  1  0  0  0  0
 29 31  1  0  0  0  0
 29 56  1  0  0  0  0
 29 57  1  0  0  0  0
 30 32  1  0  0  0  0
 30 58  1  0  0  0  0
 30 59  1  0  0  0  0
 31 33  1  0  0  0  0
 31 60  1  0  0  0  0
 31 61  1  0  0  0  0
 32 33  1  0  0  0  0
 32 62  1  0  0  0  0
 32 63  1  0  0  0  0
M  END
>  <Mol_ID>
9558

>  <Formula>
C24H31ClN8O

>  <MolWeight>
483.00894

>  <Cat>
E4578

>  <Name>
Trilaciclib dihydrochloride

>  <Synonyms>
G1T28 dihydrochloride

>  <Target>
CDK

>  <Form>
dihydrochloride

>  <CAS>
1977495-97-8

>  <URL>
https://www.selleckchem.com/products/trilaciclib-hydrochloride

$$$$
