Trimethylamine N-oxide
 OpenBabel08302521373D

 14 13  0  0  0  0  0  0  0  0999 V2000
    1.0162   -0.0489   -0.0856 N   0  3  0  0  0  0  0  0  0  0  0  0
    0.5202   -0.8380    1.0920 C   0  0  0  0  0  0  0  0  0  0  0  0
    0.5202    1.3655    0.0091 C   0  0  0  0  0  0  0  0  0  0  0  0
    0.5202   -0.6746   -1.3578 C   0  0  0  0  0  0  0  0  0  0  0  0
    2.3873   -0.0489   -0.0856 O   0  5  0  0  0  0  0  0  0  0  0  0
    0.9097   -0.3619    1.9959 H   0  0  0  0  0  0  0  0  0  0  0  0
   -0.5724   -0.8259    1.0740 H   0  0  0  0  0  0  0  0  0  0  0  0
    0.9097   -1.8550    0.9956 H   0  0  0  0  0  0  0  0  0  0  0  0
    0.9100    1.9104   -0.8554 H   0  0  0  0  0  0  0  0  0  0  0  0
   -0.5723    1.3439    0.0073 H   0  0  0  0  0  0  0  0  0  0  0  0
    0.9096    1.7905    0.9380 H   0  0  0  0  0  0  0  0  0  0  0  0
    0.9099   -0.0824   -2.1905 H   0  0  0  0  0  0  0  0  0  0  0  0
    0.9096   -1.6954   -1.3973 H   0  0  0  0  0  0  0  0  0  0  0  0
   -0.5723   -0.6646   -1.3384 H   0  0  0  0  0  0  0  0  0  0  0  0
  1  2  1  0  0  0  0
  1  3  1  0  0  0  0
  1  4  1  0  0  0  0
  1  5  1  0  0  0  0
  2  6  1  0  0  0  0
  2  7  1  0  0  0  0
  2  8  1  0  0  0  0
  3  9  1  0  0  0  0
  3 10  1  0  0  0  0
  3 11  1  0  0  0  0
  4 12  1  0  0  0  0
  4 13  1  0  0  0  0
  4 14  1  0  0  0  0
M  CHG  2   1   1   5  -1
M  END
>  <Mol_ID>
7413

>  <Formula>
C3H9NO

>  <MolWeight>
75.10966

>  <Cat>
E4512

>  <Name>
Trimethylamine N-oxide

>  <Target>
ROS/NLRP3

>  <Form>
Free base

>  <CAS>
1184-78-7

>  <URL>
https://www.selleckchem.com/products/trimethylamine-n-oxide.html

$$$$
