Trimebutine.cdx
 OpenBabel08302522003D

 57 58  0  0  0  0  0  0  0  0999 V2000
   -4.2483    3.0792    3.1270 C   0  0  0  0  0  0  0  0  0  0  0  0
   -4.6420    1.8108    2.6463 C   0  0  0  0  0  0  0  0  0  0  0  0
   -3.9346    1.2478    1.5571 C   0  0  0  0  0  0  0  0  0  0  0  0
   -2.8515    1.9169    0.9729 C   0  0  0  0  0  0  0  0  0  0  0  0
   -2.4617    3.1561    1.4642 C   0  0  0  0  0  0  0  0  0  0  0  0
   -3.1340    3.7140    2.5538 C   0  0  0  0  0  0  0  0  0  0  0  0
   -4.9381    3.6454    4.1668 O   0  0  0  0  0  0  0  0  0  0  0  0
   -4.7761    5.0407    4.4089 C   0  0  0  0  0  0  0  0  0  0  0  0
   -5.6229    1.0097    3.1663 O   0  0  0  0  0  0  0  0  0  0  0  0
   -6.5238    1.5038    4.1415 C   0  0  0  0  0  0  0  0  0  0  0  0
   -4.1539    0.0087    0.9999 O   0  0  0  0  0  0  0  0  0  0  0  0
   -5.5127   -0.3729    0.8275 C   0  0  0  0  0  0  0  0  0  0  0  0
   -1.2987    3.9033    0.9248 C   0  0  0  0  0  0  0  0  0  0  0  0
   -0.3784    3.0298    0.4611 O   0  0  0  0  0  0  0  0  0  0  0  0
   -1.1567    5.1089    1.0547 O   0  0  0  0  0  0  0  0  0  0  0  0
    1.0035    3.3941    0.6883 C   0  0  0  0  0  0  0  0  0  0  0  0
    1.6003    2.4894    1.8531 C   0  0  3  0  0  0  0  0  0  0  0  0
    0.8913    2.8249    3.2085 C   0  0  0  0  0  0  0  0  0  0  0  0
    1.2998    0.9982    1.3946 C   0  0  0  0  0  0  0  0  0  0  0  0
    3.0936    2.6570    1.9720 N   0  0  0  0  0  0  0  0  0  0  0  0
    1.9651    0.5632    0.0850 C   0  0  0  0  0  0  0  0  0  0  0  0
    3.5550    4.0327    2.1663 C   0  0  0  0  0  0  0  0  0  0  0  0
    3.7151    1.8121    3.0021 C   0  0  0  0  0  0  0  0  0  0  0  0
    0.6317    1.8374    4.1759 C   0  0  0  0  0  0  0  0  0  0  0  0
    0.0665    2.1558    5.4187 C   0  0  0  0  0  0  0  0  0  0  0  0
   -0.2712    3.4694    5.7209 C   0  0  0  0  0  0  0  0  0  0  0  0
   -0.0342    4.4673    4.7877 C   0  0  0  0  0  0  0  0  0  0  0  0
    0.5527    4.1504    3.5577 C   0  0  0  0  0  0  0  0  0  0  0  0
   -2.3220    1.4544    0.1457 H   0  0  0  0  0  0  0  0  0  0  0  0
   -2.7418    4.6390    2.9682 H   0  0  0  0  0  0  0  0  0  0  0  0
   -4.5512    5.6218    3.5085 H   0  0  0  0  0  0  0  0  0  0  0  0
   -5.7251    5.4228    4.7959 H   0  0  0  0  0  0  0  0  0  0  0  0
   -4.0067    5.1957    5.1716 H   0  0  0  0  0  0  0  0  0  0  0  0
   -6.0180    1.7415    5.0800 H   0  0  0  0  0  0  0  0  0  0  0  0
   -7.1081    2.3469    3.7548 H   0  0  0  0  0  0  0  0  0  0  0  0
   -7.2336    0.6970    4.3658 H   0  0  0  0  0  0  0  0  0  0  0  0
   -5.9019   -0.8573    1.7279 H   0  0  0  0  0  0  0  0  0  0  0  0
   -6.1421    0.4708    0.5229 H   0  0  0  0  0  0  0  0  0  0  0  0
   -5.5461   -1.1171    0.0255 H   0  0  0  0  0  0  0  0  0  0  0  0
    1.5382    3.2198   -0.2517 H   0  0  0  0  0  0  0  0  0  0  0  0
    1.1064    4.4669    0.8759 H   0  0  0  0  0  0  0  0  0  0  0  0
    1.6070    0.2705    2.1505 H   0  0  0  0  0  0  0  0  0  0  0  0
    0.2171    0.8462    1.2947 H   0  0  0  0  0  0  0  0  0  0  0  0
    3.0536    0.6636    0.1326 H   0  0  0  0  0  0  0  0  0  0  0  0
    1.7410   -0.4909   -0.1100 H   0  0  0  0  0  0  0  0  0  0  0  0
    1.6003    1.1299   -0.7755 H   0  0  0  0  0  0  0  0  0  0  0  0
    3.2572    4.4466    3.1365 H   0  0  0  0  0  0  0  0  0  0  0  0
    4.6476    4.0723    2.1203 H   0  0  0  0  0  0  0  0  0  0  0  0
    3.2046    4.7024    1.3749 H   0  0  0  0  0  0  0  0  0  0  0  0
    3.4169    2.0944    4.0177 H   0  0  0  0  0  0  0  0  0  0  0  0
    3.5014    0.7498    2.8596 H   0  0  0  0  0  0  0  0  0  0  0  0
    4.8067    1.8940    2.9511 H   0  0  0  0  0  0  0  0  0  0  0  0
    0.8934    0.7977    4.0105 H   0  0  0  0  0  0  0  0  0  0  0  0
   -0.0923    1.3721    6.1542 H   0  0  0  0  0  0  0  0  0  0  0  0
   -0.7041    3.7141    6.6870 H   0  0  0  0  0  0  0  0  0  0  0  0
   -0.2906    5.4997    5.0121 H   0  0  0  0  0  0  0  0  0  0  0  0
    0.7431    4.9792    2.8806 H   0  0  0  0  0  0  0  0  0  0  0  0
  1  2  2  0  0  0  0
  1  7  1  0  0  0  0
  2  3  1  0  0  0  0
  2  9  1  0  0  0  0
  3  4  2  0  0  0  0
  3 11  1  0  0  0  0
  4  5  1  0  0  0  0
  4 29  1  0  0  0  0
  5  6  2  0  0  0  0
  5 13  1  0  0  0  0
  6  1  1  0  0  0  0
  6 30  1  0  0  0  0
  7  8  1  0  0  0  0
  8 31  1  0  0  0  0
  8 32  1  0  0  0  0
  8 33  1  0  0  0  0
  9 10  1  0  0  0  0
 10 34  1  0  0  0  0
 10 35  1  0  0  0  0
 10 36  1  0  0  0  0
 11 12  1  0  0  0  0
 12 37  1  0  0  0  0
 12 38  1  0  0  0  0
 12 39  1  0  0  0  0
 13 14  1  0  0  0  0
 13 15  2  0  0  0  0
 14 16  1  0  0  0  0
 16 17  1  0  0  0  0
 16 40  1  0  0  0  0
 16 41  1  0  0  0  0
 17 18  1  0  0  0  0
 17 19  1  0  0  0  0
 17 20  1  0  0  0  0
 18 24  2  0  0  0  0
 19 21  1  0  0  0  0
 19 42  1  0  0  0  0
 19 43  1  0  0  0  0
 20 22  1  0  0  0  0
 20 23  1  0  0  0  0
 21 44  1  0  0  0  0
 21 45  1  0  0  0  0
 21 46  1  0  0  0  0
 22 47  1  0  0  0  0
 22 48  1  0  0  0  0
 22 49  1  0  0  0  0
 23 50  1  0  0  0  0
 23 51  1  0  0  0  0
 23 52  1  0  0  0  0
 24 25  1  0  0  0  0
 24 53  1  0  0  0  0
 25 26  2  0  0  0  0
 25 54  1  0  0  0  0
 26 27  1  0  0  0  0
 26 55  1  0  0  0  0
 27 28  2  0  0  0  0
 27 56  1  0  0  0  0
 28 18  1  0  0  0  0
 28 57  1  0  0  0  0
M  END
>  <Mol_ID>
1087

>  <Formula>
C22H29NO5

>  <MolWeight>
387.46936

>  <Cat>
S2085

>  <Name>
Trimebutine

>  <Synonyms>
Mebutin

>  <Target>
Opioid Receptor

>  <Form>
free base

>  <CAS>
39133-31-8

>  <URL>
http://selleckchem.com/products/trimebutine.html

$$$$
