Trometamol hydrochloride
 OpenBabel08302521303D

 19 18  0  0  0  0  0  0  0  0999 V2000
    1.0306   -0.0191    0.0005 O   0  0  0  0  0  0  0  0  0  0  0  0
    1.0552   -2.3807   -4.2934 O   0  0  0  0  0  0  0  0  0  0  0  0
    1.0166    1.3832   -2.3102 O   0  0  0  0  0  0  0  0  0  0  0  0
    2.5316   -1.0157   -2.1768 N   0  0  0  0  0  0  0  0  0  0  0  0
    1.0415   -1.0830   -2.2032 C   0  0  0  0  0  0  0  0  0  0  0  0
    0.5371   -1.1376   -0.7437 C   0  0  0  0  0  0  0  0  0  0  0  0
    0.5712   -2.3536   -2.9506 C   0  0  0  0  0  0  0  0  0  0  0  0
    0.5105    0.1918   -2.9167 C   0  0  0  0  0  0  0  0  0  0  0  0
    2.0009   -0.1511    0.0148 H   0  0  0  0  0  0  0  0  0  0  0  0
    0.4279   -1.8940   -4.8545 H   0  0  0  0  0  0  0  0  0  0  0  0
    0.8577    1.2935   -1.3457 H   0  0  0  0  0  0  0  0  0  0  0  0
    2.8589   -1.3136   -3.1021 H   0  0  0  0  0  0  0  0  0  0  0  0
    2.7891   -0.0233   -2.1317 H   0  0  0  0  0  0  0  0  0  0  0  0
    0.8686   -2.0507   -0.2364 H   0  0  0  0  0  0  0  0  0  0  0  0
   -0.5567   -1.1077   -0.7051 H   0  0  0  0  0  0  0  0  0  0  0  0
    0.9480   -3.2522   -2.4516 H   0  0  0  0  0  0  0  0  0  0  0  0
   -0.5226   -2.4220   -2.9720 H   0  0  0  0  0  0  0  0  0  0  0  0
    0.8212    0.2173   -3.9669 H   0  0  0  0  0  0  0  0  0  0  0  0
   -0.5836    0.2309   -2.8903 H   0  0  0  0  0  0  0  0  0  0  0  0
  1  6  1  0  0  0  0
  1  9  1  0  0  0  0
  2  7  1  0  0  0  0
  2 10  1  0  0  0  0
  3  8  1  0  0  0  0
  3 11  1  0  0  0  0
  4  5  1  0  0  0  0
  4 12  1  0  0  0  0
  4 13  1  0  0  0  0
  5  6  1  0  0  0  0
  5  7  1  0  0  0  0
  5  8  1  0  0  0  0
  6 14  1  0  0  0  0
  6 15  1  0  0  0  0
  7 16  1  0  0  0  0
  7 17  1  0  0  0  0
  8 18  1  0  0  0  0
  8 19  1  0  0  0  0
M  END
>  <Mol_ID>
5677

>  <Formula>
C4H12ClNO3

>  <MolWeight>
157.59598

>  <Cat>
S5300

>  <Name>
Trometamol hydrochloride

>  <Synonyms>
THAM, Tromethamine hydrochloride, TRIS-HCL

>  <Target>
Others

>  <Form>
Hydrochloride

>  <CAS>
1185-53-1

>  <URL>
http://www.selleckchem.com/products/trometamol-hydrochloride.html

$$$$
