Trometamol.cdx
 OpenBabel08302522043D

 19 18  0  0  0  0  0  0  0  0999 V2000
    0.8967   -0.0272   -0.0176 C   0  0  0  0  0  0  0  0  0  0  0  0
    0.4389    1.4487   -0.0837 C   0  0  0  0  0  0  0  0  0  0  0  0
    0.3686   -0.8071   -1.2452 C   0  0  0  0  0  0  0  0  0  0  0  0
    0.3551   -0.6491    1.3024 C   0  0  0  0  0  0  0  0  0  0  0  0
    2.3852   -0.1347   -0.0600 N   0  0  0  0  0  0  0  0  0  0  0  0
    0.9315    2.0972   -1.2538 O   0  0  0  0  0  0  0  0  0  0  0  0
    0.8701   -2.1492   -1.2109 O   0  0  0  0  0  0  0  0  0  0  0  0
    0.7491   -2.0041    1.4983 O   0  0  0  0  0  0  0  0  0  0  0  0
   -0.6549    1.5080   -0.1101 H   0  0  0  0  0  0  0  0  0  0  0  0
    0.7800    2.0148    0.7902 H   0  0  0  0  0  0  0  0  0  0  0  0
   -0.7252   -0.8515   -1.2516 H   0  0  0  0  0  0  0  0  0  0  0  0
    0.6978   -0.3573   -2.1881 H   0  0  0  0  0  0  0  0  0  0  0  0
    0.7116   -0.0812    2.1689 H   0  0  0  0  0  0  0  0  0  0  0  0
   -0.7405   -0.6174    1.3171 H   0  0  0  0  0  0  0  0  0  0  0  0
    2.7391    0.3807   -0.8650 H   0  0  0  0  0  0  0  0  0  0  0  0
    2.7848    0.2901    0.7769 H   0  0  0  0  0  0  0  0  0  0  0  0
    1.8508    2.3611   -1.0760 H   0  0  0  0  0  0  0  0  0  0  0  0
    1.8293   -2.0353   -1.0290 H   0  0  0  0  0  0  0  0  0  0  0  0
    0.6413   -2.4589    0.6378 H   0  0  0  0  0  0  0  0  0  0  0  0
  1  2  1  0  0  0  0
  1  3  1  0  0  0  0
  1  4  1  0  0  0  0
  1  5  1  0  0  0  0
  2  6  1  0  0  0  0
  2  9  1  0  0  0  0
  2 10  1  0  0  0  0
  3  7  1  0  0  0  0
  3 11  1  0  0  0  0
  3 12  1  0  0  0  0
  4  8  1  0  0  0  0
  4 13  1  0  0  0  0
  4 14  1  0  0  0  0
  5 15  1  0  0  0  0
  5 16  1  0  0  0  0
  6 17  1  0  0  0  0
  7 18  1  0  0  0  0
  8 19  1  0  0  0  0
M  END
>  <Mol_ID>
1296

>  <Formula>
C4H11NO3

>  <MolWeight>
121.13504

>  <Cat>
S4176

>  <Name>
Trometamol

>  <Synonyms>
Tromethamine

>  <Target>
COX

>  <Form>
free base

>  <CAS>
77-86-1

>  <URL>
http://selleckchem.com/products/trometamol.html

$$$$
