Tropic acid
 OpenBabel08302521363D

 22 22  0  0  0  0  0  0  0  0999 V2000
    0.9829   -0.0567    0.0556 C   0  0  3  0  0  0  0  0  0  0  0  0
    0.5823    1.4030   -0.1288 C   0  0  0  0  0  0  0  0  0  0  0  0
    0.5123   -0.8599   -1.1671 C   0  0  0  0  0  0  0  0  0  0  0  0
    0.3771    2.1126    1.0039 O   0  0  0  0  0  0  0  0  0  0  0  0
    0.5134    1.9389   -1.2294 O   0  0  0  0  0  0  0  0  0  0  0  0
    1.2673   -0.5165   -2.3297 O   0  0  0  0  0  0  0  0  0  0  0  0
    0.4932   -0.7134    1.3388 C   0  0  0  0  0  0  0  0  0  0  0  0
   -0.8609   -0.6940    1.7130 C   0  0  0  0  0  0  0  0  0  0  0  0
    1.4096   -1.3897    2.1597 C   0  0  0  0  0  0  0  0  0  0  0  0
   -1.2785   -1.3205    2.8897 C   0  0  0  0  0  0  0  0  0  0  0  0
    0.9866   -2.0220    3.3296 C   0  0  0  0  0  0  0  0  0  0  0  0
   -0.3564   -1.9847    3.6957 C   0  0  0  0  0  0  0  0  0  0  0  0
    2.0813   -0.0390    0.0636 H   0  0  0  0  0  0  0  0  0  0  0  0
    0.6571   -1.9342   -1.0066 H   0  0  0  0  0  0  0  0  0  0  0  0
   -0.5497   -0.6973   -1.3842 H   0  0  0  0  0  0  0  0  0  0  0  0
    0.4807    1.6038    1.8316 H   0  0  0  0  0  0  0  0  0  0  0  0
    1.1021    0.4350   -2.5015 H   0  0  0  0  0  0  0  0  0  0  0  0
   -1.6052   -0.1924    1.0974 H   0  0  0  0  0  0  0  0  0  0  0  0
    2.4631   -1.4455    1.8885 H   0  0  0  0  0  0  0  0  0  0  0  0
   -2.3284   -1.2982    3.1747 H   0  0  0  0  0  0  0  0  0  0  0  0
    1.7044   -2.5536    3.9501 H   0  0  0  0  0  0  0  0  0  0  0  0
   -0.6853   -2.4834    4.6045 H   0  0  0  0  0  0  0  0  0  0  0  0
  1  2  1  0  0  0  0
  1  3  1  0  0  0  0
  1  7  1  0  0  0  0
  1 13  1  0  0  0  0
  2  4  1  0  0  0  0
  2  5  2  0  0  0  0
  3  6  1  0  0  0  0
  3 14  1  0  0  0  0
  3 15  1  0  0  0  0
  4 16  1  0  0  0  0
  6 17  1  0  0  0  0
  7  8  2  0  0  0  0
  7  9  1  0  0  0  0
  8 10  1  0  0  0  0
  8 18  1  0  0  0  0
  9 11  2  0  0  0  0
  9 19  1  0  0  0  0
 10 12  2  0  0  0  0
 10 20  1  0  0  0  0
 11 12  1  0  0  0  0
 11 21  1  0  0  0  0
 12 22  1  0  0  0  0
M  END
>  <Mol_ID>
7234

>  <Formula>
C9H10O3

>  <MolWeight>
166.1739

>  <Cat>
E4241

>  <Name>
Tropic acid

>  <Synonyms>
DL-Tropic Acid

>  <Target>
Others

>  <Form>
free base

>  <CAS>
552-63-6

>  <URL>
https://www.selleckchem.com/products/tropic-acid.html

$$$$
