TRYPTAMINE HYDROCHLORIDE
 OpenBabel08302521373D

 24 25  0  0  0  0  0  0  0  0999 V2000
    0.9664   -0.0752    0.0933 C   0  0  0  0  0  0  0  0  0  0  0  0
    1.7660   -0.6785   -1.0672 C   0  0  0  0  0  0  0  0  0  0  0  0
    2.1734   -2.0584   -0.7951 N   0  0  0  0  0  0  0  0  0  0  0  0
    1.2628    2.5260    0.1396 C   0  0  0  0  0  0  0  0  0  0  0  0
    0.4789    3.6163   -0.2440 C   0  0  0  0  0  0  0  0  0  0  0  0
    0.5333    1.3357   -0.1751 C   0  0  0  0  0  0  0  0  0  0  0  0
    2.5197    2.7799    0.7267 C   0  0  0  0  0  0  0  0  0  0  0  0
   -0.6788    3.1081   -0.7836 N   0  0  0  0  0  0  0  0  0  0  0  0
    0.8845    4.9451   -0.0600 C   0  0  0  0  0  0  0  0  0  0  0  0
   -0.6564    1.7390   -0.7526 C   0  0  0  0  0  0  0  0  0  0  0  0
    2.9414    4.1008    0.9175 C   0  0  0  0  0  0  0  0  0  0  0  0
    2.1328    5.1651    0.5298 C   0  0  0  0  0  0  0  0  0  0  0  0
    1.5736   -0.0944    1.0075 H   0  0  0  0  0  0  0  0  0  0  0  0
    0.0818   -0.6911    0.2994 H   0  0  0  0  0  0  0  0  0  0  0  0
    1.1651   -0.6670   -1.9836 H   0  0  0  0  0  0  0  0  0  0  0  0
    2.6620   -0.0770   -1.2600 H   0  0  0  0  0  0  0  0  0  0  0  0
    2.7670   -2.3873   -1.5545 H   0  0  0  0  0  0  0  0  0  0  0  0
    2.7465   -2.0893    0.0477 H   0  0  0  0  0  0  0  0  0  0  0  0
    3.1565    1.9574    1.0375 H   0  0  0  0  0  0  0  0  0  0  0  0
   -1.4387    3.6701   -1.1410 H   0  0  0  0  0  0  0  0  0  0  0  0
    0.2561    5.7772   -0.3580 H   0  0  0  0  0  0  0  0  0  0  0  0
   -1.4929    1.1660   -1.1305 H   0  0  0  0  0  0  0  0  0  0  0  0
    3.9076    4.2934    1.3765 H   0  0  0  0  0  0  0  0  0  0  0  0
    2.4750    6.1851    0.6916 H   0  0  0  0  0  0  0  0  0  0  0  0
  1  2  1  0  0  0  0
  1  6  1  0  0  0  0
  1 13  1  0  0  0  0
  1 14  1  0  0  0  0
  2  3  1  0  0  0  0
  2 15  1  0  0  0  0
  2 16  1  0  0  0  0
  3 17  1  0  0  0  0
  3 18  1  0  0  0  0
  4  5  2  0  0  0  0
  4  6  1  0  0  0  0
  4  7  1  0  0  0  0
  5  8  1  0  0  0  0
  5  9  1  0  0  0  0
  6 10  2  0  0  0  0
  7 11  2  0  0  0  0
  7 19  1  0  0  0  0
  8 10  1  0  0  0  0
  8 20  1  0  0  0  0
  9 12  2  0  0  0  0
  9 21  1  0  0  0  0
 10 22  1  0  0  0  0
 11 12  1  0  0  0  0
 11 23  1  0  0  0  0
 12 24  1  0  0  0  0
M  END
>  <Mol_ID>
7561

>  <Formula>
C10H13ClN2

>  <MolWeight>
196.67662

>  <Cat>
E2153

>  <Name>
TRYPTAMINE HYDROCHLORIDE

>  <Target>
Others

>  <Form>
HYDROCHLORIDE

>  <CAS>
343-94-2

>  <URL>
https://www.selleckchem.com/products/triptamine-hydrochloride.html

$$$$
