TSU-68 (SU6668).cdx
 OpenBabel08302520003D

 41 43  0  0  0  0  0  0  0  0999 V2000
    2.6269   -2.3631   -1.1344 C   0  0  0  0  0  0  0  0  0  0  0  0
    2.8812   -3.6195   -1.7154 C   0  0  0  0  0  0  0  0  0  0  0  0
    1.8502   -4.5419   -1.8843 C   0  0  0  0  0  0  0  0  0  0  0  0
    0.5940   -4.1690   -1.4561 C   0  0  0  0  0  0  0  0  0  0  0  0
    0.3175   -2.9270   -0.8737 C   0  0  0  0  0  0  0  0  0  0  0  0
    1.3376   -2.0041   -0.7101 C   0  0  0  0  0  0  0  0  0  0  0  0
   -0.5507   -4.9508   -1.5211 N   0  0  0  0  0  0  0  0  0  0  0  0
   -1.6385   -4.3014   -0.9709 C   0  0  0  0  0  0  0  0  0  0  0  0
   -1.1252   -2.9370   -0.5761 C   0  0  0  0  0  0  0  0  0  0  0  0
   -2.7613   -4.7654   -0.8554 O   0  0  0  0  0  0  0  0  0  0  0  0
   -1.8538   -1.9117   -0.1092 C   0  0  0  0  0  0  0  0  0  0  0  0
   -3.2592   -1.9824    0.0493 C   0  0  0  0  0  0  0  0  0  0  0  0
   -4.0472   -1.5461   -0.9818 N   0  0  0  0  0  0  0  0  0  0  0  0
   -5.3727   -1.6160   -0.6300 C   0  0  0  0  0  0  0  0  0  0  0  0
   -5.4463   -2.1953    0.6324 C   0  0  0  0  0  0  0  0  0  0  0  0
   -4.0897   -2.3493    1.0937 C   0  0  0  0  0  0  0  0  0  0  0  0
   -3.6276   -2.7655    2.4498 C   0  0  0  0  0  0  0  0  0  0  0  0
   -6.7013   -2.5371    1.3921 C   0  0  0  0  0  0  0  0  0  0  0  0
   -7.6572   -3.4992    0.6848 C   0  0  0  0  0  0  0  0  0  0  0  0
   -7.0859   -4.8652    0.4048 C   0  0  0  0  0  0  0  0  0  0  0  0
   -6.0616   -4.8861   -0.4582 O   0  0  0  0  0  0  0  0  0  0  0  0
   -7.5905   -5.9020    0.8384 O   0  0  0  0  0  0  0  0  0  0  0  0
   -6.4290   -1.0744   -1.5273 C   0  0  0  0  0  0  0  0  0  0  0  0
    3.4513   -1.6621   -1.0143 H   0  0  0  0  0  0  0  0  0  0  0  0
    3.8880   -3.8780   -2.0337 H   0  0  0  0  0  0  0  0  0  0  0  0
    2.0313   -5.5135   -2.3286 H   0  0  0  0  0  0  0  0  0  0  0  0
    1.1633   -1.0297   -0.2665 H   0  0  0  0  0  0  0  0  0  0  0  0
   -0.6084   -5.8927   -1.8745 H   0  0  0  0  0  0  0  0  0  0  0  0
   -1.3815   -0.9673    0.1431 H   0  0  0  0  0  0  0  0  0  0  0  0
   -3.6983   -1.1495   -1.8446 H   0  0  0  0  0  0  0  0  0  0  0  0
   -4.1326   -2.1632    3.2126 H   0  0  0  0  0  0  0  0  0  0  0  0
   -3.8192   -3.8237    2.6426 H   0  0  0  0  0  0  0  0  0  0  0  0
   -2.5514   -2.5927    2.5666 H   0  0  0  0  0  0  0  0  0  0  0  0
   -6.4402   -2.9350    2.3779 H   0  0  0  0  0  0  0  0  0  0  0  0
   -7.2434   -1.6005    1.5658 H   0  0  0  0  0  0  0  0  0  0  0  0
   -8.5487   -3.6345    1.3146 H   0  0  0  0  0  0  0  0  0  0  0  0
   -8.0299   -3.0845   -0.2561 H   0  0  0  0  0  0  0  0  0  0  0  0
   -5.7003   -4.0113   -0.6992 H   0  0  0  0  0  0  0  0  0  0  0  0
   -7.1287   -1.8519   -1.8440 H   0  0  0  0  0  0  0  0  0  0  0  0
   -6.9884   -0.2938   -1.0032 H   0  0  0  0  0  0  0  0  0  0  0  0
   -5.9994   -0.6267   -2.4297 H   0  0  0  0  0  0  0  0  0  0  0  0
  1  2  2  0  0  0  0
  1 24  1  0  0  0  0
  2  3  1  0  0  0  0
  2 25  1  0  0  0  0
  3  4  2  0  0  0  0
  3 26  1  0  0  0  0
  4  5  1  0  0  0  0
  4  7  1  0  0  0  0
  5  6  2  0  0  0  0
  6  1  1  0  0  0  0
  6 27  1  0  0  0  0
  7  8  1  0  0  0  0
  7 28  1  0  0  0  0
  8  9  1  0  0  0  0
  8 10  2  0  0  0  0
  9  5  1  0  0  0  0
  9 11  2  0  0  0  0
 11 12  1  0  0  0  0
 11 29  1  0  0  0  0
 12 13  1  0  0  0  0
 13 14  1  0  0  0  0
 13 30  1  0  0  0  0
 14 15  2  0  0  0  0
 14 23  1  0  0  0  0
 15 16  1  0  0  0  0
 15 18  1  0  0  0  0
 16 12  2  0  0  0  0
 16 17  1  0  0  0  0
 17 31  1  0  0  0  0
 17 32  1  0  0  0  0
 17 33  1  0  0  0  0
 18 19  1  0  0  0  0
 18 34  1  0  0  0  0
 18 35  1  0  0  0  0
 19 20  1  0  0  0  0
 19 36  1  0  0  0  0
 19 37  1  0  0  0  0
 20 21  1  0  0  0  0
 20 22  2  0  0  0  0
 21 38  1  0  0  0  0
 23 39  1  0  0  0  0
 23 40  1  0  0  0  0
 23 41  1  0  0  0  0
M  END
>  <Mol_ID>
275

>  <Formula>
C18H18N2O3

>  <MolWeight>
310.34712

>  <Cat>
S1470

>  <Name>
Orantinib (SU6668)

>  <Synonyms>
TSU-68

>  <Target>
PDGFR

>  <Form>
free base

>  <CAS>
252916-29-3

>  <URL>
http://selleckchem.com/products/TSU-68(SU6668).html

$$$$
