TTP 22
 OpenBabel08302520403D

 36 38  0  0  0  0  0  0  0  0999 V2000
   -0.2874    0.0668   -1.8939 C   0  0  0  0  0  0  0  0  0  0  0  0
   -1.1243    1.0532   -1.1150 C   0  0  0  0  0  0  0  0  0  0  0  0
   -2.3239    0.4457   -0.3893 C   0  0  0  0  0  0  0  0  0  0  0  0
   -0.4641   -1.1351   -1.9531 O   0  0  0  0  0  0  0  0  0  0  0  0
    0.7191    0.6799   -2.5671 O   0  0  0  0  0  0  0  0  0  0  0  0
   -2.0043   -0.7356    0.9769 S   0  0  0  0  0  0  0  0  0  0  0  0
   -0.6153    2.2738    3.0282 C   0  0  0  0  0  0  0  0  0  0  0  0
    0.2870    1.8630    3.9074 N   0  0  0  0  0  0  0  0  0  0  0  0
    0.5306    0.5433    3.8406 C   0  0  0  0  0  0  0  0  0  0  0  0
   -0.0496   -0.3844    2.9733 C   0  0  0  0  0  0  0  0  0  0  0  0
   -1.0058    0.1951    2.0985 C   0  0  0  0  0  0  0  0  0  0  0  0
   -1.2564    1.5253    2.1316 N   0  0  0  0  0  0  0  0  0  0  0  0
    0.5006   -1.7257    3.2568 C   0  0  0  0  0  0  0  0  0  0  0  0
    1.4290   -1.6781    4.2874 C   0  0  0  0  0  0  0  0  0  0  0  0
    1.6514   -0.1241    4.9276 S   0  0  0  0  0  0  0  0  0  0  0  0
    0.1717   -3.0399    2.6766 C   0  0  0  0  0  0  0  0  0  0  0  0
   -0.0610   -3.1929    1.3114 C   0  0  0  0  0  0  0  0  0  0  0  0
   -0.6544   -4.3566    0.8126 C   0  0  0  0  0  0  0  0  0  0  0  0
   -0.9201   -5.4402    1.6607 C   0  0  0  0  0  0  0  0  0  0  0  0
   -0.4782   -5.3725    2.9799 C   0  0  0  0  0  0  0  0  0  0  0  0
    0.0383   -4.1769    3.4914 C   0  0  0  0  0  0  0  0  0  0  0  0
   -1.6635   -6.6361    1.1593 C   0  0  0  0  0  0  0  0  0  0  0  0
   -0.4751    1.6014   -0.4269 H   0  0  0  0  0  0  0  0  0  0  0  0
   -1.5174    1.7732   -1.8474 H   0  0  0  0  0  0  0  0  0  0  0  0
   -2.9458    1.2534    0.0086 H   0  0  0  0  0  0  0  0  0  0  0  0
   -2.9426   -0.0932   -1.1165 H   0  0  0  0  0  0  0  0  0  0  0  0
    0.7501    1.6470   -2.4487 H   0  0  0  0  0  0  0  0  0  0  0  0
   -0.8606    3.3305    3.0422 H   0  0  0  0  0  0  0  0  0  0  0  0
    1.9923   -2.4951    4.7185 H   0  0  0  0  0  0  0  0  0  0  0  0
    0.1471   -2.3867    0.6130 H   0  0  0  0  0  0  0  0  0  0  0  0
   -0.9481   -4.3853   -0.2355 H   0  0  0  0  0  0  0  0  0  0  0  0
   -0.5865   -6.2329    3.6375 H   0  0  0  0  0  0  0  0  0  0  0  0
    0.2945   -4.1492    4.5481 H   0  0  0  0  0  0  0  0  0  0  0  0
   -0.9658   -7.4122    0.8297 H   0  0  0  0  0  0  0  0  0  0  0  0
   -2.3037   -7.0404    1.9477 H   0  0  0  0  0  0  0  0  0  0  0  0
   -2.3170   -6.3690    0.3267 H   0  0  0  0  0  0  0  0  0  0  0  0
  1  2  1  0  0  0  0
  1  4  2  0  0  0  0
  1  5  1  0  0  0  0
  2  3  1  0  0  0  0
  2 23  1  0  0  0  0
  2 24  1  0  0  0  0
  3  6  1  0  0  0  0
  3 25  1  0  0  0  0
  3 26  1  0  0  0  0
  5 27  1  0  0  0  0
  6 11  1  0  0  0  0
  7  8  2  0  0  0  0
  7 12  1  0  0  0  0
  7 28  1  0  0  0  0
  8  9  1  0  0  0  0
  9 10  2  0  0  0  0
  9 15  1  0  0  0  0
 10 11  1  0  0  0  0
 10 13  1  0  0  0  0
 11 12  2  0  0  0  0
 13 14  2  0  0  0  0
 13 16  1  0  0  0  0
 14 15  1  0  0  0  0
 14 29  1  0  0  0  0
 16 17  2  0  0  0  0
 16 21  1  0  0  0  0
 17 18  1  0  0  0  0
 17 30  1  0  0  0  0
 18 19  2  0  0  0  0
 18 31  1  0  0  0  0
 19 20  1  0  0  0  0
 19 22  1  0  0  0  0
 20 21  2  0  0  0  0
 20 32  1  0  0  0  0
 21 33  1  0  0  0  0
 22 34  1  0  0  0  0
 22 35  1  0  0  0  0
 22 36  1  0  0  0  0
M  END
>  <Mol_ID>
3824

>  <Formula>
C16H14N2O2S2

>  <MolWeight>
330.42456

>  <Cat>
S6536

>  <Name>
TTP 22

>  <Synonyms>
N/A

>  <Target>
Casein Kinase

>  <Form>
free base

>  <CAS>
329907-28-0

>  <URL>
http://www.selleck.cn/products/ttp-22.html

$$$$
