Tyramine hydrochloride
 OpenBabel08302521363D

 21 21  0  0  0  0  0  0  0  0999 V2000
    0.9772    0.1086   -0.0529 C   0  0  0  0  0  0  0  0  0  0  0  0
    0.0099   -0.2669    1.0751 C   0  0  0  0  0  0  0  0  0  0  0  0
    0.4525   -1.4768    1.7696 N   0  0  0  0  0  0  0  0  0  0  0  0
   -0.5166    4.8601   -2.7644 O   0  0  0  0  0  0  0  0  0  0  0  0
    0.5730    1.3789   -0.7646 C   0  0  0  0  0  0  0  0  0  0  0  0
    1.0243    2.6239   -0.3016 C   0  0  0  0  0  0  0  0  0  0  0  0
   -0.2590    1.3348   -1.8925 C   0  0  0  0  0  0  0  0  0  0  0  0
    0.6664    3.8018   -0.9615 C   0  0  0  0  0  0  0  0  0  0  0  0
   -0.6160    2.5126   -2.5531 C   0  0  0  0  0  0  0  0  0  0  0  0
   -0.1498    3.7353   -2.0856 C   0  0  0  0  0  0  0  0  0  0  0  0
    1.0416   -0.7087   -0.7832 H   0  0  0  0  0  0  0  0  0  0  0  0
    1.9924    0.2322    0.3471 H   0  0  0  0  0  0  0  0  0  0  0  0
   -0.0584    0.5487    1.8037 H   0  0  0  0  0  0  0  0  0  0  0  0
   -0.9972   -0.4312    0.6751 H   0  0  0  0  0  0  0  0  0  0  0  0
   -0.2297   -1.7203    2.4873 H   0  0  0  0  0  0  0  0  0  0  0  0
    0.4706   -2.2609    1.1185 H   0  0  0  0  0  0  0  0  0  0  0  0
   -0.1010    5.6262   -2.3375 H   0  0  0  0  0  0  0  0  0  0  0  0
    1.6680    2.6802    0.5738 H   0  0  0  0  0  0  0  0  0  0  0  0
   -0.6260    0.3840   -2.2714 H   0  0  0  0  0  0  0  0  0  0  0  0
    1.0342    4.7522   -0.5884 H   0  0  0  0  0  0  0  0  0  0  0  0
   -1.2508    2.4757   -3.4340 H   0  0  0  0  0  0  0  0  0  0  0  0
  1  2  1  0  0  0  0
  1  5  1  0  0  0  0
  1 11  1  0  0  0  0
  1 12  1  0  0  0  0
  2  3  1  0  0  0  0
  2 13  1  0  0  0  0
  2 14  1  0  0  0  0
  3 15  1  0  0  0  0
  3 16  1  0  0  0  0
  4 10  1  0  0  0  0
  4 17  1  0  0  0  0
  5  6  2  0  0  0  0
  5  7  1  0  0  0  0
  6  8  1  0  0  0  0
  6 18  1  0  0  0  0
  7  9  2  0  0  0  0
  7 19  1  0  0  0  0
  8 10  2  0  0  0  0
  8 20  1  0  0  0  0
  9 10  1  0  0  0  0
  9 21  1  0  0  0  0
M  END
>  <Mol_ID>
7037

>  <Formula>
C8H12ClNO

>  <MolWeight>
173.63998

>  <Cat>
E4029

>  <Name>
Tyramine hydrochloride

>  <Synonyms>
Tyramine hydrochloride

>  <Target>
Others

>  <Form>
Hydrochloride salt

>  <CAS>
60-19-5

>  <URL>
https://www.selleckchem.com/products/tyramine-hydrochloride.html

$$$$
