TYZEKA (telbivudine).cdx
 OpenBabel08302520403D

 31 32  0  0  0  0  0  0  0  0999 V2000
    2.8118    3.8345    0.3161 N   0  0  0  0  0  0  0  0  0  0  0  0
    3.9752    4.3033   -0.2229 C   0  0  0  0  0  0  0  0  0  0  0  0
    4.7934    3.3118   -0.9583 C   0  0  0  0  0  0  0  0  0  0  0  0
    4.3689    2.0420   -0.9779 C   0  0  0  0  0  0  0  0  0  0  0  0
    3.2200    1.6303   -0.3300 N   0  0  0  0  0  0  0  0  0  0  0  0
    2.4283    2.5238    0.3779 C   0  0  0  0  0  0  0  0  0  0  0  0
    1.4505    2.1934    1.0489 O   0  0  0  0  0  0  0  0  0  0  0  0
    4.3253    5.4713   -0.0844 O   0  0  0  0  0  0  0  0  0  0  0  0
    6.0657    3.7486   -1.6064 C   0  0  0  0  0  0  0  0  0  0  0  0
    2.8635    0.2217   -0.2469 C   0  0  2  0  0  0  0  0  0  0  0  0
    3.4698   -0.4778    0.9621 C   0  0  0  0  0  0  0  0  0  0  0  0
    3.5239   -1.9127    0.4957 C   0  0  2  0  0  0  0  0  0  0  0  0
    3.8378   -1.7811   -0.9941 C   0  0  1  0  0  0  0  0  0  0  0  0
    3.2989   -0.5041   -1.4111 O   0  0  0  0  0  0  0  0  0  0  0  0
    5.3494   -1.8117   -1.2656 C   0  0  0  0  0  0  0  0  0  0  0  0
    2.2541   -2.5347    0.7033 O   0  0  0  0  0  0  0  0  0  0  0  0
    5.6401   -1.7054   -2.6569 O   0  0  0  0  0  0  0  0  0  0  0  0
    2.2631    4.4904    0.8477 H   0  0  0  0  0  0  0  0  0  0  0  0
    4.9373    1.2782   -1.5030 H   0  0  0  0  0  0  0  0  0  0  0  0
    6.9047    3.1476   -1.2375 H   0  0  0  0  0  0  0  0  0  0  0  0
    6.0039    3.6310   -2.6929 H   0  0  0  0  0  0  0  0  0  0  0  0
    6.3045    4.7957   -1.3990 H   0  0  0  0  0  0  0  0  0  0  0  0
    1.7702    0.1317   -0.2194 H   0  0  0  0  0  0  0  0  0  0  0  0
    2.8727   -0.3217    1.8661 H   0  0  0  0  0  0  0  0  0  0  0  0
    4.4854   -0.1102    1.1533 H   0  0  0  0  0  0  0  0  0  0  0  0
    4.2610   -2.5068    1.0430 H   0  0  0  0  0  0  0  0  0  0  0  0
    3.3350   -2.5484   -1.5924 H   0  0  0  0  0  0  0  0  0  0  0  0
    5.8546   -0.9757   -0.7727 H   0  0  0  0  0  0  0  0  0  0  0  0
    5.7908   -2.7459   -0.9022 H   0  0  0  0  0  0  0  0  0  0  0  0
    1.6024   -2.1586    0.0849 H   0  0  0  0  0  0  0  0  0  0  0  0
    5.2385   -2.4677   -3.1084 H   0  0  0  0  0  0  0  0  0  0  0  0
  1  2  1  0  0  0  0
  1 18  1  0  0  0  0
  2  3  1  0  0  0  0
  2  8  2  0  0  0  0
  3  4  2  0  0  0  0
  3  9  1  0  0  0  0
  4  5  1  0  0  0  0
  4 19  1  0  0  0  0
  5  6  1  0  0  0  0
  6  1  1  0  0  0  0
  6  7  2  0  0  0  0
  9 20  1  0  0  0  0
  9 21  1  0  0  0  0
  9 22  1  0  0  0  0
 10 11  1  0  0  0  0
 10 23  1  1  0  0  0
 10  5  1  0  0  0  0
 11 12  1  0  0  0  0
 11 24  1  0  0  0  0
 11 25  1  0  0  0  0
 12 13  1  0  0  0  0
 12 16  1  0  0  0  0
 12 26  1  1  0  0  0
 13 14  1  0  0  0  0
 13 15  1  0  0  0  0
 13 27  1  6  0  0  0
 14 10  1  0  0  0  0
 15 17  1  0  0  0  0
 15 28  1  0  0  0  0
 15 29  1  0  0  0  0
 16 30  1  0  0  0  0
 17 31  1  0  0  0  0
M  END
>  <Mol_ID>
374

>  <Formula>
C10H14N2O5

>  <MolWeight>
242.22856

>  <Cat>
S1651

>  <Name>
Telbivudine

>  <Synonyms>
NV 02B

>  <Target>
Reverse Transcriptase

>  <Form>
free base

>  <CAS>
3424-98-4

>  <URL>
http://selleckchem.com/products/Telbivudine(Sebivo).html

$$$$
