UCB9608
 OpenBabel08302521353D

 56 59  0  0  0  0  0  0  0  0999 V2000
   -0.1649   -1.4127    0.5776 C   0  0  0  0  0  0  0  0  0  0  0  0
   -1.4448   -1.2714    0.0428 C   0  0  0  0  0  0  0  0  0  0  0  0
   -2.0894   -0.0315    0.0663 C   0  0  0  0  0  0  0  0  0  0  0  0
   -1.4724    1.0845    0.6260 C   0  0  0  0  0  0  0  0  0  0  0  0
   -0.1983    0.9514    1.1744 C   0  0  0  0  0  0  0  0  0  0  0  0
    0.4655   -0.2908    1.1646 C   0  0  0  0  0  0  0  0  0  0  0  0
    1.8456   -0.3643    1.7694 C   0  0  0  0  0  0  0  0  0  0  0  0
   -2.2093    2.2344    0.5778 O   0  0  0  0  0  0  0  0  0  0  0  0
   -1.6141    3.4034    1.1245 C   0  0  0  0  0  0  0  0  0  0  0  0
    0.5270   -2.6407    0.5767 N   0  0  0  0  0  0  0  0  0  0  0  0
    0.2341   -3.8101   -0.0858 C   0  0  0  0  0  0  0  0  0  0  0  0
    1.0946   -4.8620    0.1993 N   0  0  0  0  0  0  0  0  0  0  0  0
   -0.6923   -3.9418   -0.8837 O   0  0  0  0  0  0  0  0  0  0  0  0
    2.1973   -4.8837    1.1762 C   0  0  0  0  0  0  0  0  0  0  0  0
    3.5098   -5.3515    0.5197 C   0  0  1  0  0  0  0  0  0  0  0  0
    3.2831   -6.6652   -0.1000 N   0  0  0  0  0  0  0  0  0  0  0  0
    2.1466   -6.7931   -1.0225 C   0  0  0  0  0  0  0  0  0  0  0  0
    0.8634   -6.1673   -0.4358 C   0  0  0  0  0  0  0  0  0  0  0  0
    4.0110   -4.3489   -0.5294 C   0  0  0  0  0  0  0  0  0  0  0  0
    4.2517   -7.6342    0.0572 C   0  0  0  0  0  0  0  0  0  0  0  0
    4.9667   -7.6501    1.2195 N   0  0  0  0  0  0  0  0  0  0  0  0
    5.8947   -8.5900    1.4440 C   0  0  0  0  0  0  0  0  0  0  0  0
    6.2165   -9.5970    0.6273 N   0  0  0  0  0  0  0  0  0  0  0  0
    5.5318   -9.5533   -0.5270 C   0  0  0  0  0  0  0  0  0  0  0  0
    4.5633   -8.6302   -0.8788 C   0  0  0  0  0  0  0  0  0  0  0  0
    6.5542   -8.5332    2.6583 N   0  0  0  0  0  0  0  0  0  0  0  0
    5.6508  -10.3987   -1.5951 N   0  0  0  0  0  0  0  0  0  0  0  0
    4.8418  -10.0839   -2.6306 N   0  0  0  0  0  0  0  0  0  0  0  0
    4.1992   -8.9986   -2.1926 C   0  0  0  0  0  0  0  0  0  0  0  0
    6.5436  -11.5214   -1.7205 C   0  0  0  0  0  0  0  0  0  0  0  0
   -1.9765   -2.1117   -0.3933 H   0  0  0  0  0  0  0  0  0  0  0  0
   -3.0859    0.0593   -0.3581 H   0  0  0  0  0  0  0  0  0  0  0  0
    0.3065    1.8024    1.6195 H   0  0  0  0  0  0  0  0  0  0  0  0
    1.8648   -1.0839    2.5940 H   0  0  0  0  0  0  0  0  0  0  0  0
    2.5777   -0.6559    1.0098 H   0  0  0  0  0  0  0  0  0  0  0  0
    2.1641    0.6022    2.1750 H   0  0  0  0  0  0  0  0  0  0  0  0
   -1.4143    3.2820    2.1942 H   0  0  0  0  0  0  0  0  0  0  0  0
   -0.7036    3.6747    0.5800 H   0  0  0  0  0  0  0  0  0  0  0  0
   -2.3276    4.2254    1.0112 H   0  0  0  0  0  0  0  0  0  0  0  0
    1.4256   -2.6022    1.0095 H   0  0  0  0  0  0  0  0  0  0  0  0
    1.9015   -5.5908    1.9614 H   0  0  0  0  0  0  0  0  0  0  0  0
    2.3665   -3.9314    1.6766 H   0  0  0  0  0  0  0  0  0  0  0  0
    4.2617   -5.3915    1.3170 H   0  0  0  0  0  0  0  0  0  0  0  0
    1.9158   -7.8439   -1.2307 H   0  0  0  0  0  0  0  0  0  0  0  0
    2.3974   -6.3109   -1.9741 H   0  0  0  0  0  0  0  0  0  0  0  0
    0.4681   -6.8242    0.3499 H   0  0  0  0  0  0  0  0  0  0  0  0
    0.1004   -6.1089   -1.2184 H   0  0  0  0  0  0  0  0  0  0  0  0
    4.1548   -3.3590   -0.0815 H   0  0  0  0  0  0  0  0  0  0  0  0
    4.9702   -4.6742   -0.9467 H   0  0  0  0  0  0  0  0  0  0  0  0
    3.3151   -4.2343   -1.3656 H   0  0  0  0  0  0  0  0  0  0  0  0
    6.8888   -9.4518    2.9133 H   0  0  0  0  0  0  0  0  0  0  0  0
    5.9805   -8.0460    3.3316 H   0  0  0  0  0  0  0  0  0  0  0  0
    3.4940   -8.5177   -2.8560 H   0  0  0  0  0  0  0  0  0  0  0  0
    5.9458  -12.4127   -1.9307 H   0  0  0  0  0  0  0  0  0  0  0  0
    7.2295  -11.3185   -2.5458 H   0  0  0  0  0  0  0  0  0  0  0  0
    7.1040  -11.6609   -0.7951 H   0  0  0  0  0  0  0  0  0  0  0  0
  1  2  2  0  0  0  0
  1 10  1  0  0  0  0
  2  3  1  0  0  0  0
  2 31  1  0  0  0  0
  3  4  2  0  0  0  0
  3 32  1  0  0  0  0
  4  5  1  0  0  0  0
  4  8  1  0  0  0  0
  5  6  2  0  0  0  0
  5 33  1  0  0  0  0
  6  1  1  0  0  0  0
  6  7  1  0  0  0  0
  7 34  1  0  0  0  0
  7 35  1  0  0  0  0
  7 36  1  0  0  0  0
  8  9  1  0  0  0  0
  9 37  1  0  0  0  0
  9 38  1  0  0  0  0
  9 39  1  0  0  0  0
 10 11  1  0  0  0  0
 10 40  1  0  0  0  0
 11 12  1  0  0  0  0
 11 13  2  0  0  0  0
 12 14  1  0  0  0  0
 14 15  1  0  0  0  0
 14 41  1  0  0  0  0
 14 42  1  0  0  0  0
 15 16  1  0  0  0  0
 15 19  1  0  0  0  0
 15 43  1  1  0  0  0
 16 17  1  0  0  0  0
 16 20  1  0  0  0  0
 17 18  1  0  0  0  0
 17 44  1  0  0  0  0
 17 45  1  0  0  0  0
 18 12  1  0  0  0  0
 18 46  1  0  0  0  0
 18 47  1  0  0  0  0
 19 48  1  0  0  0  0
 19 49  1  0  0  0  0
 19 50  1  0  0  0  0
 20 21  2  0  0  0  0
 21 22  1  0  0  0  0
 22 23  2  0  0  0  0
 22 26  1  0  0  0  0
 23 24  1  0  0  0  0
 24 25  2  0  0  0  0
 24 27  1  0  0  0  0
 25 20  1  0  0  0  0
 26 51  1  0  0  0  0
 26 52  1  0  0  0  0
 27 28  1  0  0  0  0
 27 30  1  0  0  0  0
 28 29  2  0  0  0  0
 29 25  1  0  0  0  0
 29 53  1  0  0  0  0
 30 54  1  0  0  0  0
 30 55  1  0  0  0  0
 30 56  1  0  0  0  0
M  END
>  <Mol_ID>
6611

>  <Formula>
C20H26N8O2

>  <MolWeight>
410.47284

>  <Cat>
S0041

>  <Name>
UCB9608

>  <Synonyms>
N/A

>  <Target>
PI4K

>  <Form>
Free base

>  <CAS>
1616413-96-7

>  <URL>
http://www.selleckchem.com/products/ucb9608.html

$$$$
