UNC2025
 OpenBabel08302521263D

 75 79  0  0  0  0  0  0  0  0999 V2000
    5.8903   -2.5751   -3.9045 N   0  0  0  0  0  0  0  0  0  0  0  0
    5.4520   -3.5374   -3.0823 C   0  0  0  0  0  0  0  0  0  0  0  0
    4.5324   -3.3740   -2.1179 N   0  0  0  0  0  0  0  0  0  0  0  0
    3.9882   -2.1454   -2.0558 C   0  0  0  0  0  0  0  0  0  0  0  0
    4.3341   -1.0874   -2.8938 C   0  0  0  0  0  0  0  0  0  0  0  0
    5.3332   -1.3491   -3.8226 C   0  0  0  0  0  0  0  0  0  0  0  0
    2.9788   -1.7146   -1.2204 N   0  0  0  0  0  0  0  0  0  0  0  0
    2.7364   -0.3804   -1.4805 C   0  0  0  0  0  0  0  0  0  0  0  0
    3.5151    0.0176   -2.5361 C   0  0  0  0  0  0  0  0  0  0  0  0
    5.8893   -4.8208   -3.2800 N   0  0  0  0  0  0  0  0  0  0  0  0
    7.1522   -5.0705   -3.9315 C   0  0  0  0  0  0  0  0  0  0  0  0
    7.4404   -6.5689   -4.0417 C   0  0  0  0  0  0  0  0  0  0  0  0
    6.4027   -7.3280   -4.8725 C   0  0  0  0  0  0  0  0  0  0  0  0
    6.7532   -8.8044   -4.9869 C   0  0  0  0  0  0  0  0  0  0  0  0
    2.2629   -2.4433   -0.1628 C   0  0  2  0  0  0  0  0  0  0  0  0
    3.4167    1.3346   -3.1360 C   0  0  0  0  0  0  0  0  0  0  0  0
    3.1314    2.4508   -2.3519 C   0  0  0  0  0  0  0  0  0  0  0  0
    2.9757    3.7048   -2.9452 C   0  0  0  0  0  0  0  0  0  0  0  0
    3.1106    3.8375   -4.3308 C   0  0  0  0  0  0  0  0  0  0  0  0
    3.4171    2.7170   -5.1088 C   0  0  0  0  0  0  0  0  0  0  0  0
    3.5554    1.4743   -4.5188 C   0  0  0  0  0  0  0  0  0  0  0  0
    2.9479    5.1825   -4.9917 C   0  0  0  0  0  0  0  0  0  0  0  0
    3.8884    6.1885   -4.4965 N   0  0  0  0  0  0  0  0  0  0  0  0
    5.3002    5.8111   -4.7150 C   0  0  0  0  0  0  0  0  0  0  0  0
    6.2634    6.9176   -4.2248 C   0  0  0  0  0  0  0  0  0  0  0  0
    6.0196    8.2525   -4.8073 N   0  0  0  0  0  0  0  0  0  0  0  0
    4.5871    8.5843   -4.6705 C   0  0  0  0  0  0  0  0  0  0  0  0
    3.6145    7.4818   -5.1427 C   0  0  0  0  0  0  0  0  0  0  0  0
    6.4582    8.3148   -6.1995 C   0  0  0  0  0  0  0  0  0  0  0  0
    2.6020   -3.9337   -0.0203 C   0  0  0  0  0  0  0  0  0  0  0  0
    2.0519   -4.7688   -1.1820 C   0  0  0  0  0  0  0  0  0  0  0  0
    0.5510   -4.5840   -1.3718 C   0  0  2  0  0  0  0  0  0  0  0  0
    0.1176   -3.1185   -1.4006 C   0  0  0  0  0  0  0  0  0  0  0  0
    0.7246   -2.2967   -0.2614 C   0  0  0  0  0  0  0  0  0  0  0  0
   -0.1221   -5.2330   -0.2981 O   0  0  0  0  0  0  0  0  0  0  0  0
    5.6928   -0.6173   -4.5353 H   0  0  0  0  0  0  0  0  0  0  0  0
    1.9935    0.1656   -0.9075 H   0  0  0  0  0  0  0  0  0  0  0  0
    5.4007   -5.5292   -2.7530 H   0  0  0  0  0  0  0  0  0  0  0  0
    7.1649   -4.6227   -4.9306 H   0  0  0  0  0  0  0  0  0  0  0  0
    7.9671   -4.6100   -3.3530 H   0  0  0  0  0  0  0  0  0  0  0  0
    8.4275   -6.6946   -4.5033 H   0  0  0  0  0  0  0  0  0  0  0  0
    7.5003   -7.0095   -3.0388 H   0  0  0  0  0  0  0  0  0  0  0  0
    5.4111   -7.2393   -4.4149 H   0  0  0  0  0  0  0  0  0  0  0  0
    6.3380   -6.8933   -5.8766 H   0  0  0  0  0  0  0  0  0  0  0  0
    6.8035   -9.2739   -3.9991 H   0  0  0  0  0  0  0  0  0  0  0  0
    5.9923   -9.3301   -5.5725 H   0  0  0  0  0  0  0  0  0  0  0  0
    7.7191   -8.9438   -5.4829 H   0  0  0  0  0  0  0  0  0  0  0  0
    2.5824   -1.9411    0.7618 H   0  0  0  0  0  0  0  0  0  0  0  0
    3.0320    2.3729   -1.2668 H   0  0  0  0  0  0  0  0  0  0  0  0
    2.7583    4.5701   -2.3315 H   0  0  0  0  0  0  0  0  0  0  0  0
    3.5437    2.8121   -6.1923 H   0  0  0  0  0  0  0  0  0  0  0  0
    3.7550    0.6156   -5.1574 H   0  0  0  0  0  0  0  0  0  0  0  0
    1.9179    5.5028   -4.7859 H   0  0  0  0  0  0  0  0  0  0  0  0
    3.0270    5.0780   -6.0839 H   0  0  0  0  0  0  0  0  0  0  0  0
    5.5482    4.9005   -4.1569 H   0  0  0  0  0  0  0  0  0  0  0  0
    5.4853    5.5966   -5.7756 H   0  0  0  0  0  0  0  0  0  0  0  0
    6.1679    7.0012   -3.1335 H   0  0  0  0  0  0  0  0  0  0  0  0
    7.3008    6.6091   -4.4042 H   0  0  0  0  0  0  0  0  0  0  0  0
    4.3870    8.7882   -3.6102 H   0  0  0  0  0  0  0  0  0  0  0  0
    4.3613    9.5181   -5.1992 H   0  0  0  0  0  0  0  0  0  0  0  0
    3.6709    7.3842   -6.2347 H   0  0  0  0  0  0  0  0  0  0  0  0
    2.5930    7.7992   -4.9009 H   0  0  0  0  0  0  0  0  0  0  0  0
    5.9279    7.6167   -6.8554 H   0  0  0  0  0  0  0  0  0  0  0  0
    6.3189    9.3256   -6.5959 H   0  0  0  0  0  0  0  0  0  0  0  0
    7.5296    8.0969   -6.2689 H   0  0  0  0  0  0  0  0  0  0  0  0
    2.1590   -4.3023    0.9147 H   0  0  0  0  0  0  0  0  0  0  0  0
    3.6805   -4.0813    0.0949 H   0  0  0  0  0  0  0  0  0  0  0  0
    2.2891   -5.8205   -0.9842 H   0  0  0  0  0  0  0  0  0  0  0  0
    2.5331   -4.5172   -2.1271 H   0  0  0  0  0  0  0  0  0  0  0  0
    0.2381   -5.0686   -2.3033 H   0  0  0  0  0  0  0  0  0  0  0  0
    0.3883   -2.6614   -2.3595 H   0  0  0  0  0  0  0  0  0  0  0  0
   -0.9752   -3.0624   -1.3129 H   0  0  0  0  0  0  0  0  0  0  0  0
    0.2799   -2.6265    0.6869 H   0  0  0  0  0  0  0  0  0  0  0  0
    0.4179   -1.2517   -0.3763 H   0  0  0  0  0  0  0  0  0  0  0  0
    0.2191   -6.1437   -0.2576 H   0  0  0  0  0  0  0  0  0  0  0  0
  1  2  2  0  0  0  0
  2  3  1  0  0  0  0
  2 10  1  0  0  0  0
  3  4  2  0  0  0  0
  4  5  1  0  0  0  0
  4  7  1  0  0  0  0
  5  6  2  0  0  0  0
  6  1  1  0  0  0  0
  6 36  1  0  0  0  0
  7  8  1  0  0  0  0
  8  9  2  0  0  0  0
  8 37  1  0  0  0  0
  9  5  1  0  0  0  0
  9 16  1  0  0  0  0
 10 11  1  0  0  0  0
 10 38  1  0  0  0  0
 11 12  1  0  0  0  0
 11 39  1  0  0  0  0
 11 40  1  0  0  0  0
 12 13  1  0  0  0  0
 12 41  1  0  0  0  0
 12 42  1  0  0  0  0
 13 14  1  0  0  0  0
 13 43  1  0  0  0  0
 13 44  1  0  0  0  0
 14 45  1  0  0  0  0
 14 46  1  0  0  0  0
 14 47  1  0  0  0  0
 15 30  1  0  0  0  0
 15 48  1  1  0  0  0
 15  7  1  0  0  0  0
 16 17  2  0  0  0  0
 17 18  1  0  0  0  0
 17 49  1  0  0  0  0
 18 19  2  0  0  0  0
 18 50  1  0  0  0  0
 19 20  1  0  0  0  0
 19 22  1  0  0  0  0
 20 21  2  0  0  0  0
 20 51  1  0  0  0  0
 21 16  1  0  0  0  0
 21 52  1  0  0  0  0
 22 23  1  0  0  0  0
 22 53  1  0  0  0  0
 22 54  1  0  0  0  0
 23 24  1  0  0  0  0
 24 25  1  0  0  0  0
 24 55  1  0  0  0  0
 24 56  1  0  0  0  0
 25 26  1  0  0  0  0
 25 57  1  0  0  0  0
 25 58  1  0  0  0  0
 26 27  1  0  0  0  0
 26 29  1  0  0  0  0
 27 28  1  0  0  0  0
 27 59  1  0  0  0  0
 27 60  1  0  0  0  0
 28 23  1  0  0  0  0
 28 61  1  0  0  0  0
 28 62  1  0  0  0  0
 29 63  1  0  0  0  0
 29 64  1  0  0  0  0
 29 65  1  0  0  0  0
 30 31  1  0  0  0  0
 30 66  1  0  0  0  0
 30 67  1  0  0  0  0
 31 32  1  0  0  0  0
 31 68  1  0  0  0  0
 31 69  1  0  0  0  0
 32 33  1  0  0  0  0
 32 70  1  6  0  0  0
 32 35  1  0  0  0  0
 33 34  1  0  0  0  0
 33 71  1  0  0  0  0
 33 72  1  0  0  0  0
 34 15  1  0  0  0  0
 34 73  1  0  0  0  0
 34 74  1  0  0  0  0
 35 75  1  0  0  0  0
M  END
>  <Mol_ID>
5250

>  <Formula>
C28H40N6O

>  <MolWeight>
476.6568

>  <Cat>
S9662

>  <Name>
UNC2025

>  <Synonyms>
N/A

>  <Target>
Axl,c-Kit,c-Met,FLT3,Mertk,Trk receptor,Tyro3

>  <Form>
free base

>  <CAS>
1429881-91-3

>  <URL>
http://www.selleckchem.com/products/unc2025.html

$$$$
