UNC2881.cdx
 OpenBabel08302519583D

 67 70  0  0  0  0  0  0  0  0999 V2000
   -0.8242    0.8839   -0.0189 N   0  0  0  0  0  0  0  0  0  0  0  0
    0.2754    1.6042    0.2658 C   0  0  0  0  0  0  0  0  0  0  0  0
    1.4371    1.0348    0.5454 N   0  0  0  0  0  0  0  0  0  0  0  0
    1.4334   -0.2953    0.7295 C   0  0  0  0  0  0  0  0  0  0  0  0
    0.3424   -1.1329    0.6191 C   0  0  0  0  0  0  0  0  0  0  0  0
   -0.7756   -0.4878    0.0575 C   0  0  0  0  0  0  0  0  0  0  0  0
    0.2165    2.9951    0.2683 N   0  0  0  0  0  0  0  0  0  0  0  0
    1.4701    3.6724   -0.0687 C   0  0  0  0  0  0  0  0  0  0  0  0
    1.4485    5.1639    0.2868 C   0  0  0  0  0  0  0  0  0  0  0  0
    1.4016    5.4133    1.7970 C   0  0  0  0  0  0  0  0  0  0  0  0
    1.4163    6.8995    2.1299 C   0  0  0  0  0  0  0  0  0  0  0  0
   -1.8728   -1.0831   -0.6263 N   0  0  0  0  0  0  0  0  0  0  0  0
   -1.5776   -1.6209   -1.9946 C   0  0  2  0  0  0  0  0  0  0  0  0
   -0.6646   -0.7289   -2.8392 C   0  0  0  0  0  0  0  0  0  0  0  0
   -1.2778    0.6209   -3.2082 C   0  0  0  0  0  0  0  0  0  0  0  0
   -2.7628    0.6371   -3.5633 C   0  0  2  0  0  0  0  0  0  0  0  0
   -3.5152   -0.6902   -3.5447 C   0  0  0  0  0  0  0  0  0  0  0  0
   -2.8147   -1.8915   -2.8938 C   0  0  0  0  0  0  0  0  0  0  0  0
   -2.9233    1.2432   -4.8504 O   0  0  0  0  0  0  0  0  0  0  0  0
    0.4820   -2.5141    1.2526 C   0  0  0  0  0  0  0  0  0  0  0  0
    1.7211   -2.8319    1.8682 N   0  0  0  0  0  0  0  0  0  0  0  0
    1.9894   -4.0101    2.7018 C   0  0  0  0  0  0  0  0  0  0  0  0
    3.2666   -4.7534    2.3474 C   0  0  0  0  0  0  0  0  0  0  0  0
   -0.4668   -3.2868    1.3006 O   0  0  0  0  0  0  0  0  0  0  0  0
    4.2879   -5.0355    3.2934 C   0  0  0  0  0  0  0  0  0  0  0  0
    5.2982   -5.9876    3.0224 C   0  0  0  0  0  0  0  0  0  0  0  0
    5.3275   -6.6626    1.7938 C   0  0  0  0  0  0  0  0  0  0  0  0
    4.4109   -6.2826    0.8077 C   0  0  0  0  0  0  0  0  0  0  0  0
    3.3965   -5.3550    1.0912 C   0  0  0  0  0  0  0  0  0  0  0  0
    6.1824   -7.7844    1.5734 N   0  0  0  0  0  0  0  0  0  0  0  0
    6.8004   -8.5721    2.5336 C   0  0  0  0  0  0  0  0  0  0  0  0
    7.4293   -9.6051    2.0105 N   0  0  0  0  0  0  0  0  0  0  0  0
    7.2244   -9.5023    0.6635 C   0  0  0  0  0  0  0  0  0  0  0  0
    6.4877   -8.3822    0.3654 C   0  0  0  0  0  0  0  0  0  0  0  0
    2.4255   -0.6394    0.9841 H   0  0  0  0  0  0  0  0  0  0  0  0
   -0.6108    3.3035   -0.2206 H   0  0  0  0  0  0  0  0  0  0  0  0
    2.3296    3.2311    0.4497 H   0  0  0  0  0  0  0  0  0  0  0  0
    1.6514    3.5730   -1.1455 H   0  0  0  0  0  0  0  0  0  0  0  0
    2.3643    5.6229   -0.1106 H   0  0  0  0  0  0  0  0  0  0  0  0
    0.6056    5.6614   -0.2058 H   0  0  0  0  0  0  0  0  0  0  0  0
    0.4981    4.9642    2.2213 H   0  0  0  0  0  0  0  0  0  0  0  0
    2.2621    4.9352    2.2813 H   0  0  0  0  0  0  0  0  0  0  0  0
    0.5865    7.4209    1.6427 H   0  0  0  0  0  0  0  0  0  0  0  0
    1.3214    7.0454    3.2106 H   0  0  0  0  0  0  0  0  0  0  0  0
    2.3529    7.3681    1.8082 H   0  0  0  0  0  0  0  0  0  0  0  0
   -2.5289   -0.3052   -0.7230 H   0  0  0  0  0  0  0  0  0  0  0  0
   -1.0934   -2.5941   -1.8434 H   0  0  0  0  0  0  0  0  0  0  0  0
   -0.4268   -1.2606   -3.7709 H   0  0  0  0  0  0  0  0  0  0  0  0
    0.2990   -0.5747   -2.3451 H   0  0  0  0  0  0  0  0  0  0  0  0
   -0.6721    1.0751   -3.9994 H   0  0  0  0  0  0  0  0  0  0  0  0
   -1.1670    1.2968   -2.3578 H   0  0  0  0  0  0  0  0  0  0  0  0
   -3.2788    1.3109   -2.8678 H   0  0  0  0  0  0  0  0  0  0  0  0
   -4.4716   -0.5256   -3.0290 H   0  0  0  0  0  0  0  0  0  0  0  0
   -3.8202   -0.9610   -4.5694 H   0  0  0  0  0  0  0  0  0  0  0  0
   -2.4408   -2.4805   -3.7495 H   0  0  0  0  0  0  0  0  0  0  0  0
   -3.5547   -2.5437   -2.4178 H   0  0  0  0  0  0  0  0  0  0  0  0
   -2.6500    2.1749   -4.7713 H   0  0  0  0  0  0  0  0  0  0  0  0
    2.3900   -2.1076    2.0591 H   0  0  0  0  0  0  0  0  0  0  0  0
    2.0590   -3.6438    3.7347 H   0  0  0  0  0  0  0  0  0  0  0  0
    1.1506   -4.7108    2.6599 H   0  0  0  0  0  0  0  0  0  0  0  0
    4.2770   -4.5677    4.2761 H   0  0  0  0  0  0  0  0  0  0  0  0
    6.0379   -6.1918    3.7936 H   0  0  0  0  0  0  0  0  0  0  0  0
    4.3927   -6.7529   -0.1699 H   0  0  0  0  0  0  0  0  0  0  0  0
    2.6381   -5.1592    0.3323 H   0  0  0  0  0  0  0  0  0  0  0  0
    6.7082   -8.3761    3.5786 H   0  0  0  0  0  0  0  0  0  0  0  0
    7.6202  -10.2397   -0.0226 H   0  0  0  0  0  0  0  0  0  0  0  0
    6.1766   -7.9784   -0.5861 H   0  0  0  0  0  0  0  0  0  0  0  0
  1  2  2  0  0  0  0
  2  3  1  0  0  0  0
  2  7  1  0  0  0  0
  3  4  2  0  0  0  0
  4  5  1  0  0  0  0
  4 35  1  0  0  0  0
  5  6  2  0  0  0  0
  5 20  1  0  0  0  0
  6  1  1  0  0  0  0
  6 12  1  0  0  0  0
  7  8  1  0  0  0  0
  7 36  1  0  0  0  0
  8  9  1  0  0  0  0
  8 37  1  0  0  0  0
  8 38  1  0  0  0  0
  9 10  1  0  0  0  0
  9 39  1  0  0  0  0
  9 40  1  0  0  0  0
 10 11  1  0  0  0  0
 10 41  1  0  0  0  0
 10 42  1  0  0  0  0
 11 43  1  0  0  0  0
 11 44  1  0  0  0  0
 11 45  1  0  0  0  0
 12 46  1  0  0  0  0
 13 12  1  0  0  0  0
 13 14  1  0  0  0  0
 13 47  1  1  0  0  0
 14 15  1  0  0  0  0
 14 48  1  0  0  0  0
 14 49  1  0  0  0  0
 15 16  1  0  0  0  0
 15 50  1  0  0  0  0
 15 51  1  0  0  0  0
 16 17  1  0  0  0  0
 16 52  1  1  0  0  0
 16 19  1  0  0  0  0
 17 18  1  0  0  0  0
 17 53  1  0  0  0  0
 17 54  1  0  0  0  0
 18 13  1  0  0  0  0
 18 55  1  0  0  0  0
 18 56  1  0  0  0  0
 19 57  1  0  0  0  0
 20 21  1  0  0  0  0
 20 24  2  0  0  0  0
 21 22  1  0  0  0  0
 21 58  1  0  0  0  0
 22 23  1  0  0  0  0
 22 59  1  0  0  0  0
 22 60  1  0  0  0  0
 23 25  2  0  0  0  0
 25 26  1  0  0  0  0
 25 61  1  0  0  0  0
 26 27  2  0  0  0  0
 26 62  1  0  0  0  0
 27 28  1  0  0  0  0
 27 30  1  0  0  0  0
 28 29  2  0  0  0  0
 28 63  1  0  0  0  0
 29 23  1  0  0  0  0
 29 64  1  0  0  0  0
 30 31  1  0  0  0  0
 31 32  2  0  0  0  0
 31 65  1  0  0  0  0
 32 33  1  0  0  0  0
 33 34  2  0  0  0  0
 33 66  1  0  0  0  0
 34 30  1  0  0  0  0
 34 67  1  0  0  0  0
M  END
>  <Mol_ID>
2417

>  <Formula>
C25H33N7O2

>  <MolWeight>
463.57522

>  <Cat>
S7325

>  <Name>
UNC2881

>  <Synonyms>
N/A

>  <Target>
Axl,Mertk,Tyro3

>  <Form>
free base

>  <CAS>
1493764-08-1

>  <URL>
http://selleckchem.com/products/unc2881.html

$$$$
