UNC6934
 OpenBabel08302521333D

 54 58  0  0  0  0  0  0  0  0999 V2000
   -2.6967   -0.9370    0.0342 C   0  0  0  0  0  0  0  0  0  0  0  0
   -1.4178   -1.4756    0.2136 C   0  0  0  0  0  0  0  0  0  0  0  0
   -0.2997   -0.6752   -0.0062 C   0  0  0  0  0  0  0  0  0  0  0  0
   -0.4585    0.6286   -0.4713 C   0  0  0  0  0  0  0  0  0  0  0  0
   -1.7353    1.1388   -0.7144 C   0  0  0  0  0  0  0  0  0  0  0  0
   -2.8668    0.3966   -0.3846 C   0  0  0  0  0  0  0  0  0  0  0  0
    0.9729   -1.1770    0.2586 N   0  0  0  0  0  0  0  0  0  0  0  0
    2.0976   -0.4279    0.0639 C   0  0  0  0  0  0  0  0  0  0  0  0
    1.8702    0.9549   -0.5486 C   0  0  0  0  0  0  0  0  0  0  0  0
    0.5706    1.5055   -0.6717 O   0  0  0  0  0  0  0  0  0  0  0  0
    3.2144   -0.8634    0.3329 O   0  0  0  0  0  0  0  0  0  0  0  0
   -4.2632    0.9261   -0.4578 C   0  0  0  0  0  0  0  0  0  0  0  0
   -4.5898    2.2450   -0.0904 N   0  0  0  0  0  0  0  0  0  0  0  0
   -5.9950    2.6181   -0.0473 C   0  0  0  0  0  0  0  0  0  0  0  0
   -3.6814    3.3003    0.3908 C   0  0  0  0  0  0  0  0  0  0  0  0
   -2.8807    2.9858    1.6339 C   0  0  0  0  0  0  0  0  0  0  0  0
   -5.1297    0.1094   -0.7818 O   0  0  0  0  0  0  0  0  0  0  0  0
   -1.6285    3.6027    1.7951 C   0  0  0  0  0  0  0  0  0  0  0  0
   -0.8434    3.3374    2.9146 C   0  0  0  0  0  0  0  0  0  0  0  0
   -1.3087    2.4545    3.8923 C   0  0  0  0  0  0  0  0  0  0  0  0
   -2.5643    1.8546    3.7599 C   0  0  0  0  0  0  0  0  0  0  0  0
   -3.3562    2.1372    2.6438 C   0  0  0  0  0  0  0  0  0  0  0  0
   -0.4474    2.1168    5.0510 C   0  0  0  0  0  0  0  0  0  0  0  0
    0.1910    3.1998    5.6162 N   0  0  0  0  0  0  0  0  0  0  0  0
    0.9998    3.0989    6.7484 C   0  0  0  0  0  0  0  0  0  0  0  0
   -0.4014    0.9608    5.4528 O   0  0  0  0  0  0  0  0  0  0  0  0
    1.9468    2.1057    6.8785 C   0  0  0  0  0  0  0  0  0  0  0  0
    2.6737    2.1282    8.0444 C   0  0  0  0  0  0  0  0  0  0  0  0
    2.4672    3.0220    9.0283 N   0  0  0  0  0  0  0  0  0  0  0  0
    1.5210    3.9404    8.7877 C   0  0  0  0  0  0  0  0  0  0  0  0
    0.8038    4.0612    7.6626 N   0  0  0  0  0  0  0  0  0  0  0  0
   -6.9142    2.5030   -1.2341 C   0  0  0  0  0  0  0  0  0  0  0  0
   -6.4875    3.8558   -0.7615 C   0  0  0  0  0  0  0  0  0  0  0  0
   -3.5673   -1.5594    0.2350 H   0  0  0  0  0  0  0  0  0  0  0  0
   -1.3168   -2.5052    0.5456 H   0  0  0  0  0  0  0  0  0  0  0  0
   -1.8111    2.1259   -1.1476 H   0  0  0  0  0  0  0  0  0  0  0  0
    1.1010   -2.1053    0.6394 H   0  0  0  0  0  0  0  0  0  0  0  0
    2.4597    1.6635    0.0446 H   0  0  0  0  0  0  0  0  0  0  0  0
    2.2996    0.9296   -1.5560 H   0  0  0  0  0  0  0  0  0  0  0  0
   -6.4415    2.3962    0.9210 H   0  0  0  0  0  0  0  0  0  0  0  0
   -3.0286    3.5680   -0.4462 H   0  0  0  0  0  0  0  0  0  0  0  0
   -4.2578    4.2011    0.6134 H   0  0  0  0  0  0  0  0  0  0  0  0
   -1.2418    4.2741    1.0303 H   0  0  0  0  0  0  0  0  0  0  0  0
    0.1400    3.7931    2.9953 H   0  0  0  0  0  0  0  0  0  0  0  0
   -2.9273    1.1671    4.5212 H   0  0  0  0  0  0  0  0  0  0  0  0
   -4.3341    1.6668    2.5578 H   0  0  0  0  0  0  0  0  0  0  0  0
   -0.2613    4.0996    5.5252 H   0  0  0  0  0  0  0  0  0  0  0  0
    2.1378    1.3727    6.1067 H   0  0  0  0  0  0  0  0  0  0  0  0
    3.4656    1.4078    8.2273 H   0  0  0  0  0  0  0  0  0  0  0  0
    1.3076    4.6469    9.5821 H   0  0  0  0  0  0  0  0  0  0  0  0
   -6.5055    2.1287   -2.1647 H   0  0  0  0  0  0  0  0  0  0  0  0
   -7.9364    2.1946   -1.0463 H   0  0  0  0  0  0  0  0  0  0  0  0
   -7.2116    4.4756   -0.2463 H   0  0  0  0  0  0  0  0  0  0  0  0
   -5.8036    4.4052   -1.3979 H   0  0  0  0  0  0  0  0  0  0  0  0
  1  2  2  0  0  0  0
  1 34  1  0  0  0  0
  2  3  1  0  0  0  0
  2 35  1  0  0  0  0
  3  4  2  0  0  0  0
  3  7  1  0  0  0  0
  4  5  1  0  0  0  0
  5  6  2  0  0  0  0
  5 36  1  0  0  0  0
  6  1  1  0  0  0  0
  6 12  1  0  0  0  0
  7  8  1  0  0  0  0
  7 37  1  0  0  0  0
  8  9  1  0  0  0  0
  8 11  2  0  0  0  0
  9 10  1  0  0  0  0
  9 38  1  0  0  0  0
  9 39  1  0  0  0  0
 10  4  1  0  0  0  0
 12 13  1  0  0  0  0
 12 17  2  0  0  0  0
 13 14  1  0  0  0  0
 13 15  1  0  0  0  0
 14 32  1  0  0  0  0
 14 40  1  0  0  0  0
 15 16  1  0  0  0  0
 15 41  1  0  0  0  0
 15 42  1  0  0  0  0
 16 18  2  0  0  0  0
 18 19  1  0  0  0  0
 18 43  1  0  0  0  0
 19 20  2  0  0  0  0
 19 44  1  0  0  0  0
 20 21  1  0  0  0  0
 20 23  1  0  0  0  0
 21 22  2  0  0  0  0
 21 45  1  0  0  0  0
 22 16  1  0  0  0  0
 22 46  1  0  0  0  0
 23 24  1  0  0  0  0
 23 26  2  0  0  0  0
 24 25  1  0  0  0  0
 24 47  1  0  0  0  0
 25 27  2  0  0  0  0
 27 28  1  0  0  0  0
 27 48  1  0  0  0  0
 28 29  2  0  0  0  0
 28 49  1  0  0  0  0
 29 30  1  0  0  0  0
 30 31  2  0  0  0  0
 30 50  1  0  0  0  0
 31 25  1  0  0  0  0
 32 33  1  0  0  0  0
 32 51  1  0  0  0  0
 32 52  1  0  0  0  0
 33 14  1  0  0  0  0
 33 53  1  0  0  0  0
 33 54  1  0  0  0  0
M  END
>  <Mol_ID>
6388

>  <Formula>
C24H21N5O4

>  <MolWeight>
443.45464

>  <Cat>
E1059

>  <Name>
UNC6934

>  <Target>
NSD

>  <Form>
free base

>  <CAS>
2561494-77-5

>  <URL>
http://www.selleckchem.com/products/unc6934.html

$$$$
