untitled.cdx
 OpenBabel08302521423D

 60 64  0  0  0  0  0  0  0  0999 V2000
    6.1538   -8.5852    0.7336 C   0  0  0  0  0  0  0  0  0  0  0  0
    5.3021   -9.3633   -0.0719 C   0  0  0  0  0  0  0  0  0  0  0  0
    4.1279   -8.8587   -0.6780 C   0  0  0  0  0  0  0  0  0  0  0  0
    3.8234   -7.5075   -0.4535 C   0  0  0  0  0  0  0  0  0  0  0  0
    4.6446   -6.7436    0.3626 C   0  0  0  0  0  0  0  0  0  0  0  0
    5.8088   -7.2395    0.9543 C   0  0  0  0  0  0  0  0  0  0  0  0
    2.7821   -6.7514   -0.9354 N   0  0  0  0  0  0  0  0  0  0  0  0
    2.9119   -5.5656   -0.3784 C   0  0  0  0  0  0  0  0  0  0  0  0
    4.0250   -5.5222    0.4254 N   0  0  0  0  0  0  0  0  0  0  0  0
    7.2649   -9.1237    1.3527 N   0  0  0  0  0  0  0  0  0  0  0  0
    7.3803  -10.5543    1.6675 C   0  0  0  0  0  0  0  0  0  0  0  0
    8.0749  -10.7025    3.0334 C   0  0  0  0  0  0  0  0  0  0  0  0
    9.3470  -10.0305    3.0663 O   0  0  0  0  0  0  0  0  0  0  0  0
    9.1801   -8.6285    2.7869 C   0  0  0  0  0  0  0  0  0  0  0  0
    8.5478   -8.4060    1.4045 C   0  0  0  0  0  0  0  0  0  0  0  0
    3.2445   -9.7496   -1.4972 C   0  0  0  0  0  0  0  0  0  0  0  0
    2.1156   -4.4005   -0.5047 C   0  0  0  0  0  0  0  0  0  0  0  0
    2.3515   -3.4854   -1.4762 C   0  0  0  0  0  0  0  0  0  0  0  0
    1.4208   -2.3726   -1.6267 C   0  0  0  0  0  0  0  0  0  0  0  0
    0.3673   -2.2327   -0.8167 C   0  0  0  0  0  0  0  0  0  0  0  0
    0.9542   -4.2236    0.4272 C   0  0  0  0  0  0  0  0  0  0  0  0
    0.7465   -4.9605    1.3883 O   0  0  0  0  0  0  0  0  0  0  0  0
    0.1453   -3.1383    0.1855 N   0  0  0  0  0  0  0  0  0  0  0  0
    3.4604   -3.4617   -2.3359 N   0  0  0  0  0  0  0  0  0  0  0  0
    3.4006   -4.2054   -3.6238 C   0  0  0  0  0  0  0  0  0  0  0  0
    4.7789   -4.1096   -4.3362 C   0  0  2  0  0  0  0  0  0  0  0  0
    5.9061   -4.8041   -3.5831 C   0  0  0  0  0  0  0  0  0  0  0  0
    7.0408   -4.1089   -3.1311 C   0  0  0  0  0  0  0  0  0  0  0  0
    8.0484   -4.7609   -2.4158 C   0  0  0  0  0  0  0  0  0  0  0  0
    7.9459   -6.1229   -2.1520 C   0  0  0  0  0  0  0  0  0  0  0  0
    6.8417   -6.8332   -2.6125 C   0  0  0  0  0  0  0  0  0  0  0  0
    5.8292   -6.1813   -3.3204 C   0  0  0  0  0  0  0  0  0  0  0  0
    5.0832   -2.7196   -4.5251 O   0  0  0  0  0  0  0  0  0  0  0  0
    5.5573  -10.4032   -0.2637 H   0  0  0  0  0  0  0  0  0  0  0  0
    6.3988   -6.6083    1.6080 H   0  0  0  0  0  0  0  0  0  0  0  0
    4.3328   -4.7308    0.9716 H   0  0  0  0  0  0  0  0  0  0  0  0
    7.9728  -11.0480    0.8878 H   0  0  0  0  0  0  0  0  0  0  0  0
    6.4040  -11.0469    1.7291 H   0  0  0  0  0  0  0  0  0  0  0  0
    7.4419  -10.2983    3.8333 H   0  0  0  0  0  0  0  0  0  0  0  0
    8.2502  -11.7607    3.2493 H   0  0  0  0  0  0  0  0  0  0  0  0
   10.1691   -8.1621    2.8269 H   0  0  0  0  0  0  0  0  0  0  0  0
    8.5632   -8.1784    3.5744 H   0  0  0  0  0  0  0  0  0  0  0  0
    9.2076   -8.8210    0.6314 H   0  0  0  0  0  0  0  0  0  0  0  0
    8.4568   -7.3332    1.2099 H   0  0  0  0  0  0  0  0  0  0  0  0
    2.2538   -9.8159   -1.0348 H   0  0  0  0  0  0  0  0  0  0  0  0
    3.1386   -9.3489   -2.5099 H   0  0  0  0  0  0  0  0  0  0  0  0
    3.6485  -10.7641   -1.5724 H   0  0  0  0  0  0  0  0  0  0  0  0
    1.6040   -1.6528   -2.4191 H   0  0  0  0  0  0  0  0  0  0  0  0
   -0.3398   -1.4147   -0.9025 H   0  0  0  0  0  0  0  0  0  0  0  0
   -0.6390   -3.0288    0.8167 H   0  0  0  0  0  0  0  0  0  0  0  0
    4.2542   -3.8714   -1.8349 H   0  0  0  0  0  0  0  0  0  0  0  0
    3.1177   -5.2488   -3.4497 H   0  0  0  0  0  0  0  0  0  0  0  0
    2.6363   -3.7403   -4.2573 H   0  0  0  0  0  0  0  0  0  0  0  0
    4.7100   -4.5591   -5.3335 H   0  0  0  0  0  0  0  0  0  0  0  0
    7.1560   -3.0464   -3.3370 H   0  0  0  0  0  0  0  0  0  0  0  0
    8.9162   -4.2041   -2.0716 H   0  0  0  0  0  0  0  0  0  0  0  0
    8.7247   -6.6346   -1.5940 H   0  0  0  0  0  0  0  0  0  0  0  0
    6.7590   -7.8978   -2.4072 H   0  0  0  0  0  0  0  0  0  0  0  0
    4.9737   -6.7660   -3.6533 H   0  0  0  0  0  0  0  0  0  0  0  0
    4.7259   -2.2797   -3.7276 H   0  0  0  0  0  0  0  0  0  0  0  0
  1  2  2  0  0  0  0
  1 10  1  0  0  0  0
  2  3  1  0  0  0  0
  2 34  1  0  0  0  0
  3  4  2  0  0  0  0
  3 16  1  0  0  0  0
  4  5  1  0  0  0  0
  4  7  1  0  0  0  0
  5  6  2  0  0  0  0
  6  1  1  0  0  0  0
  6 35  1  0  0  0  0
  7  8  2  0  0  0  0
  8  9  1  0  0  0  0
  8 17  1  0  0  0  0
  9  5  1  0  0  0  0
  9 36  1  0  0  0  0
 10 11  1  0  0  0  0
 11 12  1  0  0  0  0
 11 37  1  0  0  0  0
 11 38  1  0  0  0  0
 12 13  1  0  0  0  0
 12 39  1  0  0  0  0
 12 40  1  0  0  0  0
 13 14  1  0  0  0  0
 14 15  1  0  0  0  0
 14 41  1  0  0  0  0
 14 42  1  0  0  0  0
 15 10  1  0  0  0  0
 15 43  1  0  0  0  0
 15 44  1  0  0  0  0
 16 45  1  0  0  0  0
 16 46  1  0  0  0  0
 16 47  1  0  0  0  0
 17 18  2  0  0  0  0
 18 19  1  0  0  0  0
 18 24  1  0  0  0  0
 19 20  2  0  0  0  0
 19 48  1  0  0  0  0
 20 49  1  0  0  0  0
 21 17  1  0  0  0  0
 21 22  2  0  0  0  0
 21 23  1  0  0  0  0
 23 20  1  0  0  0  0
 23 50  1  0  0  0  0
 24 25  1  0  0  0  0
 24 51  1  0  0  0  0
 25 52  1  0  0  0  0
 25 53  1  0  0  0  0
 26 33  1  0  0  0  0
 26 54  1  6  0  0  0
 26 27  1  0  0  0  0
 26 25  1  0  0  0  0
 27 28  2  0  0  0  0
 28 29  1  0  0  0  0
 28 55  1  0  0  0  0
 29 30  2  0  0  0  0
 29 56  1  0  0  0  0
 30 31  1  0  0  0  0
 30 57  1  0  0  0  0
 31 32  2  0  0  0  0
 31 58  1  0  0  0  0
 32 27  1  0  0  0  0
 32 59  1  0  0  0  0
 33 60  1  0  0  0  0
M  END
>  <Mol_ID>
851

>  <Formula>
C25H26ClN5O3

>  <MolWeight>
479.95864

>  <Cat>
S1012

>  <Name>
BMS-536924

>  <Synonyms>
CS-0117

>  <Target>
IGF-1R

>  <Form>
free base

>  <CAS>
468740-43-4

>  <URL>
http://selleckchem.com/products/BMS-536924.html

$$$$
