untitled.cdx
 OpenBabel08302521253D

 44 48  0  0  0  0  0  0  0  0999 V2000
    3.4600    0.6141    2.3821 C   0  0  0  0  0  0  0  0  0  0  0  0
    3.4333   -0.7713    2.3433 C   0  0  0  0  0  0  0  0  0  0  0  0
    2.2805   -1.4278    1.9077 C   0  0  0  0  0  0  0  0  0  0  0  0
    1.1329   -0.7173    1.5052 C   0  0  0  0  0  0  0  0  0  0  0  0
    1.1646    0.6751    1.5449 C   0  0  0  0  0  0  0  0  0  0  0  0
    2.3342    1.3279    1.9841 C   0  0  0  0  0  0  0  0  0  0  0  0
   -0.1521    1.7618    1.1222 S   0  0  0  0  0  0  0  0  0  0  0  0
   -0.2516   -1.7099    1.0184 S   0  0  0  0  0  0  0  0  0  0  0  0
   -1.5109   -0.6088    0.4142 C   0  0  0  0  0  0  0  0  0  0  0  0
   -1.4780    0.7926    0.4251 C   0  0  0  0  0  0  0  0  0  0  0  0
   -2.6537   -1.2623   -0.0935 C   0  0  0  0  0  0  0  0  0  0  0  0
   -3.7485   -0.5515   -0.5825 C   0  0  0  0  0  0  0  0  0  0  0  0
   -3.7159    0.8360   -0.5911 C   0  0  0  0  0  0  0  0  0  0  0  0
   -2.5913    1.5142   -0.0995 C   0  0  0  0  0  0  0  0  0  0  0  0
   -2.6313    2.9866   -0.0809 C   0  0  0  0  0  0  0  0  0  0  0  0
   -3.1304    3.6297    0.9816 C   0  0  0  0  0  0  0  0  0  0  0  0
   -2.9777    5.0841    1.0310 C   0  0  0  0  0  0  0  0  0  0  0  0
   -2.2114    5.7168   -0.0520 C   0  0  0  0  0  0  0  0  0  0  0  0
   -1.7361    4.9864   -1.0744 C   0  0  0  0  0  0  0  0  0  0  0  0
   -1.9991    3.6147   -1.1448 O   0  0  0  0  0  0  0  0  0  0  0  0
   -3.4341    5.7417    1.9583 O   0  0  0  0  0  0  0  0  0  0  0  0
   -0.9676    5.5200   -2.1188 N   0  0  0  0  0  0  0  0  0  0  0  0
   -0.5218    4.7206   -3.2837 C   0  0  0  0  0  0  0  0  0  0  0  0
    1.0023    4.5199   -3.2429 C   0  0  0  0  0  0  0  0  0  0  0  0
    1.7040    5.7738   -3.1633 O   0  0  0  0  0  0  0  0  0  0  0  0
    1.2919    6.4993   -1.9943 C   0  0  0  0  0  0  0  0  0  0  0  0
   -0.2158    6.7904   -2.0290 C   0  0  0  0  0  0  0  0  0  0  0  0
    4.3458    1.1427    2.7235 H   0  0  0  0  0  0  0  0  0  0  0  0
    4.3031   -1.3420    2.6563 H   0  0  0  0  0  0  0  0  0  0  0  0
    2.2842   -2.5179    1.8914 H   0  0  0  0  0  0  0  0  0  0  0  0
    2.3698    2.4163    2.0267 H   0  0  0  0  0  0  0  0  0  0  0  0
   -2.7061   -2.3512   -0.0994 H   0  0  0  0  0  0  0  0  0  0  0  0
   -4.6242   -1.0830   -0.9482 H   0  0  0  0  0  0  0  0  0  0  0  0
   -4.5748    1.3877   -0.9676 H   0  0  0  0  0  0  0  0  0  0  0  0
   -3.5700    3.1386    1.8391 H   0  0  0  0  0  0  0  0  0  0  0  0
   -2.0712    6.7796    0.0517 H   0  0  0  0  0  0  0  0  0  0  0  0
   -0.7858    5.2798   -4.1898 H   0  0  0  0  0  0  0  0  0  0  0  0
   -1.0263    3.7516   -3.3479 H   0  0  0  0  0  0  0  0  0  0  0  0
    1.2975    3.8950   -2.3923 H   0  0  0  0  0  0  0  0  0  0  0  0
    1.3342    4.0209   -4.1588 H   0  0  0  0  0  0  0  0  0  0  0  0
    1.8519    7.4393   -1.9705 H   0  0  0  0  0  0  0  0  0  0  0  0
    1.5644    5.9231   -1.1015 H   0  0  0  0  0  0  0  0  0  0  0  0
   -0.4564    7.3940   -2.9116 H   0  0  0  0  0  0  0  0  0  0  0  0
   -0.4805    7.3855   -1.1505 H   0  0  0  0  0  0  0  0  0  0  0  0
  1  2  2  0  0  0  0
  1 28  1  0  0  0  0
  2  3  1  0  0  0  0
  2 29  1  0  0  0  0
  3  4  2  0  0  0  0
  3 30  1  0  0  0  0
  4  5  1  0  0  0  0
  4  8  1  0  0  0  0
  5  6  2  0  0  0  0
  5  7  1  0  0  0  0
  6  1  1  0  0  0  0
  6 31  1  0  0  0  0
  8  9  1  0  0  0  0
  9 10  2  0  0  0  0
  9 11  1  0  0  0  0
 10  7  1  0  0  0  0
 11 12  2  0  0  0  0
 11 32  1  0  0  0  0
 12 13  1  0  0  0  0
 12 33  1  0  0  0  0
 13 14  2  0  0  0  0
 13 34  1  0  0  0  0
 14 10  1  0  0  0  0
 14 15  1  0  0  0  0
 15 16  2  0  0  0  0
 16 17  1  0  0  0  0
 16 35  1  0  0  0  0
 17 18  1  0  0  0  0
 17 21  2  0  0  0  0
 18 19  2  0  0  0  0
 18 36  1  0  0  0  0
 19 20  1  0  0  0  0
 19 22  1  0  0  0  0
 20 15  1  0  0  0  0
 22 23  1  0  0  0  0
 23 24  1  0  0  0  0
 23 37  1  0  0  0  0
 23 38  1  0  0  0  0
 24 25  1  0  0  0  0
 24 39  1  0  0  0  0
 24 40  1  0  0  0  0
 25 26  1  0  0  0  0
 26 27  1  0  0  0  0
 26 41  1  0  0  0  0
 26 42  1  0  0  0  0
 27 22  1  0  0  0  0
 27 43  1  0  0  0  0
 27 44  1  0  0  0  0
M  END
>  <Mol_ID>
55

>  <Formula>
C21H17NO3S2

>  <MolWeight>
395.49458

>  <Cat>
S1092

>  <Name>
KU-55933 (ATM Kinase Inhibitor)

>  <Synonyms>
N/A

>  <Target>
ATM/ATR,Autophagy,ULK

>  <Form>
free base

>  <CAS>
587871-26-9

>  <URL>
http://selleckchem.com/products/KU-55933.html

$$$$
