untitled.cdx
 OpenBabel08302521243D

 52 54  0  0  0  0  0  0  0  0999 V2000
    2.1874    0.7633    0.0506 C   0  0  0  0  0  0  0  0  0  0  0  0
    2.3199   -0.6243    0.0087 C   0  0  0  0  0  0  0  0  0  0  0  0
    1.1902   -1.4550   -0.0481 C   0  0  0  0  0  0  0  0  0  0  0  0
   -0.0893   -0.8657   -0.0716 C   0  0  0  0  0  0  0  0  0  0  0  0
   -0.1754    0.5186   -0.0439 C   0  0  0  0  0  0  0  0  0  0  0  0
    0.9255    1.3696    0.0256 C   0  0  0  0  0  0  0  0  0  0  0  0
   -1.4378   -1.3499   -0.0941 C   0  0  0  0  0  0  0  0  0  0  0  0
   -2.2500   -0.2181   -0.1312 C   0  0  0  0  0  0  0  0  0  0  0  0
   -1.4754    0.9131   -0.0903 O   0  0  0  0  0  0  0  0  0  0  0  0
   -1.8774   -2.7809   -0.0741 C   0  0  0  0  0  0  0  0  0  0  0  0
   -1.4056   -3.4607    1.1490 N   0  0  0  0  0  0  0  0  0  0  0  0
   -1.9682   -2.8568    2.3617 C   0  0  0  0  0  0  0  0  0  0  0  0
   -1.7818   -4.8768    1.0959 C   0  0  0  0  0  0  0  0  0  0  0  0
   -3.6959   -0.0718   -0.2122 C   0  0  0  0  0  0  0  0  0  0  0  0
   -4.4736   -1.0215   -0.2684 O   0  0  0  0  0  0  0  0  0  0  0  0
   -4.1428    1.2336   -0.2746 N   0  0  0  0  0  0  0  0  0  0  0  0
   -5.5412    1.5762   -0.5146 C   0  0  0  0  0  0  0  0  0  0  0  0
   -6.0198    1.1162   -1.8958 C   0  0  0  0  0  0  0  0  0  0  0  0
   -7.3725    1.5060   -2.1711 O   0  0  0  0  0  0  0  0  0  0  0  0
   -7.8120    1.1655   -3.4302 C   0  0  0  0  0  0  0  0  0  0  0  0
   -7.0578    0.4783   -4.3838 C   0  0  0  0  0  0  0  0  0  0  0  0
   -7.5632    0.2312   -5.6619 C   0  0  0  0  0  0  0  0  0  0  0  0
   -8.8352    0.6811   -6.0152 C   0  0  0  0  0  0  0  0  0  0  0  0
   -9.6304    1.3027   -5.0431 C   0  0  0  0  0  0  0  0  0  0  0  0
   -9.1174    1.5504   -3.7606 C   0  0  0  0  0  0  0  0  0  0  0  0
   -9.3903    0.4873   -7.3825 C   0  0  0  0  0  0  0  0  0  0  0  0
  -10.5910    0.2559   -7.5176 O   0  0  0  0  0  0  0  0  0  0  0  0
   -8.5881    0.6291   -8.4833 N   0  0  0  0  0  0  0  0  0  0  0  0
   -7.1980    0.7927   -8.4143 O   0  0  0  0  0  0  0  0  0  0  0  0
    3.0773    1.3850    0.1065 H   0  0  0  0  0  0  0  0  0  0  0  0
    3.3102   -1.0738    0.0300 H   0  0  0  0  0  0  0  0  0  0  0  0
    1.3020   -2.5358   -0.0613 H   0  0  0  0  0  0  0  0  0  0  0  0
    0.8071    2.4450    0.0652 H   0  0  0  0  0  0  0  0  0  0  0  0
   -2.9631   -2.8764   -0.1701 H   0  0  0  0  0  0  0  0  0  0  0  0
   -1.4421   -3.2733   -0.9550 H   0  0  0  0  0  0  0  0  0  0  0  0
   -3.0638   -2.8579    2.3560 H   0  0  0  0  0  0  0  0  0  0  0  0
   -1.6257   -3.3978    3.2511 H   0  0  0  0  0  0  0  0  0  0  0  0
   -1.6221   -1.8262    2.4933 H   0  0  0  0  0  0  0  0  0  0  0  0
   -2.8673   -5.0141    1.0233 H   0  0  0  0  0  0  0  0  0  0  0  0
   -1.3126   -5.3702    0.2375 H   0  0  0  0  0  0  0  0  0  0  0  0
   -1.4301   -5.4041    1.9900 H   0  0  0  0  0  0  0  0  0  0  0  0
   -3.4410    1.9642   -0.2256 H   0  0  0  0  0  0  0  0  0  0  0  0
   -6.1558    1.1305    0.2743 H   0  0  0  0  0  0  0  0  0  0  0  0
   -5.6329    2.6645   -0.4260 H   0  0  0  0  0  0  0  0  0  0  0  0
   -5.3513    1.5636   -2.6410 H   0  0  0  0  0  0  0  0  0  0  0  0
   -5.9546    0.0240   -1.9504 H   0  0  0  0  0  0  0  0  0  0  0  0
   -6.0574    0.1115   -4.1750 H   0  0  0  0  0  0  0  0  0  0  0  0
   -6.9480   -0.3239   -6.3640 H   0  0  0  0  0  0  0  0  0  0  0  0
  -10.6480    1.6040   -5.2844 H   0  0  0  0  0  0  0  0  0  0  0  0
   -9.7444    2.0466   -3.0212 H   0  0  0  0  0  0  0  0  0  0  0  0
   -8.9678    0.3230   -9.3751 H   0  0  0  0  0  0  0  0  0  0  0  0
   -7.1078    1.7589   -8.3002 H   0  0  0  0  0  0  0  0  0  0  0  0
  1  2  2  0  0  0  0
  1 30  1  0  0  0  0
  2  3  1  0  0  0  0
  2 31  1  0  0  0  0
  3  4  2  0  0  0  0
  3 32  1  0  0  0  0
  4  5  1  0  0  0  0
  4  7  1  0  0  0  0
  5  6  2  0  0  0  0
  6  1  1  0  0  0  0
  6 33  1  0  0  0  0
  7  8  2  0  0  0  0
  7 10  1  0  0  0  0
  8  9  1  0  0  0  0
  8 14  1  0  0  0  0
  9  5  1  0  0  0  0
 10 11  1  0  0  0  0
 10 34  1  0  0  0  0
 10 35  1  0  0  0  0
 11 12  1  0  0  0  0
 11 13  1  0  0  0  0
 12 36  1  0  0  0  0
 12 37  1  0  0  0  0
 12 38  1  0  0  0  0
 13 39  1  0  0  0  0
 13 40  1  0  0  0  0
 13 41  1  0  0  0  0
 14 15  2  0  0  0  0
 14 16  1  0  0  0  0
 16 17  1  0  0  0  0
 16 42  1  0  0  0  0
 17 18  1  0  0  0  0
 17 43  1  0  0  0  0
 17 44  1  0  0  0  0
 18 19  1  0  0  0  0
 18 45  1  0  0  0  0
 18 46  1  0  0  0  0
 19 20  1  0  0  0  0
 20 21  2  0  0  0  0
 21 22  1  0  0  0  0
 21 47  1  0  0  0  0
 22 23  2  0  0  0  0
 22 48  1  0  0  0  0
 23 24  1  0  0  0  0
 23 26  1  0  0  0  0
 24 25  2  0  0  0  0
 24 49  1  0  0  0  0
 25 20  1  0  0  0  0
 25 50  1  0  0  0  0
 26 27  2  0  0  0  0
 26 28  1  0  0  0  0
 28 29  1  0  0  0  0
 28 51  1  0  0  0  0
 29 52  1  0  0  0  0
M  END
>  <Mol_ID>
54

>  <Formula>
C21H23N3O5

>  <MolWeight>
397.42442

>  <Cat>
S1090

>  <Name>
Abexinostat (PCI-24781)

>  <Synonyms>
CRA-024781

>  <Target>
HDAC

>  <Form>
free base

>  <CAS>
783355-60-2

>  <URL>
http://selleckchem.com/products/PCI-24781.html

$$$$
