untitled.cdx
 OpenBabel08302522053D

 39 42  0  0  0  0  0  0  0  0999 V2000
   -0.8220    0.6528   -0.3722 C   0  0  2  0  0  0  0  0  0  0  0  0
   -0.4717   -0.8231   -0.3732 C   0  0  1  0  0  0  0  0  0  0  0  0
    1.0427   -0.8179   -0.4997 C   0  0  2  0  0  0  0  0  0  0  0  0
    1.4916    0.3593    0.2189 O   0  0  0  0  0  0  0  0  0  0  0  0
    0.3699    1.2743    0.3732 C   0  0  1  0  0  0  0  0  0  0  0  0
    1.5281   -0.7455   -1.9524 C   0  0  0  0  0  0  0  0  0  0  0  0
    2.9541   -0.7713   -1.9969 O   0  0  0  0  0  0  0  0  0  0  0  0
    0.7379    2.5813   -0.1649 N   0  0  0  0  0  0  0  0  0  0  0  0
   -0.1009    3.6818   -0.1331 C   0  0  0  0  0  0  0  0  0  0  0  0
    1.8783    2.8843   -0.9114 C   0  0  0  0  0  0  0  0  0  0  0  0
    1.6861    4.1348   -1.4619 C   0  0  0  0  0  0  0  0  0  0  0  0
    0.4711    4.5880   -0.9756 C   0  0  0  0  0  0  0  0  0  0  0  0
   -0.1498    5.7759   -1.2980 C   0  0  0  0  0  0  0  0  0  0  0  0
   -1.3487    6.0161   -0.7164 N   0  0  0  0  0  0  0  0  0  0  0  0
   -1.8189    5.0649    0.1408 C   0  0  0  0  0  0  0  0  0  0  0  0
   -1.2725    3.8653    0.4896 N   0  0  0  0  0  0  0  0  0  0  0  0
    0.5574    6.5544   -2.2223 N   0  0  0  0  0  0  0  0  0  0  0  0
    1.8147    6.1501   -2.7522 N   0  0  0  0  0  0  0  0  0  0  0  0
    2.3643    5.0166   -2.3827 C   0  0  0  0  0  0  0  0  0  0  0  0
    3.5644    4.5575   -2.8227 N   0  0  0  0  0  0  0  0  0  0  0  0
   -0.0422    7.7608   -2.7458 C   0  0  0  0  0  0  0  0  0  0  0  0
   -0.8825   -1.3818    0.8845 O   0  0  0  0  0  0  0  0  0  0  0  0
   -2.0836    0.8659    0.2550 O   0  0  0  0  0  0  0  0  0  0  0  0
   -0.8817    1.0315   -1.3996 H   0  0  0  0  0  0  0  0  0  0  0  0
   -0.9860   -1.3828   -1.1593 H   0  0  0  0  0  0  0  0  0  0  0  0
    1.5024   -1.6792   -0.0023 H   0  0  0  0  0  0  0  0  0  0  0  0
    0.1833    1.4061    1.4448 H   0  0  0  0  0  0  0  0  0  0  0  0
    1.1632   -1.6039   -2.5252 H   0  0  0  0  0  0  0  0  0  0  0  0
    1.2058    0.1724   -2.4518 H   0  0  0  0  0  0  0  0  0  0  0  0
    3.2713   -0.1164   -1.3481 H   0  0  0  0  0  0  0  0  0  0  0  0
    2.6826    2.1724   -1.0068 H   0  0  0  0  0  0  0  0  0  0  0  0
   -2.7744    5.2929    0.6067 H   0  0  0  0  0  0  0  0  0  0  0  0
    3.7168    3.5580   -2.7931 H   0  0  0  0  0  0  0  0  0  0  0  0
    3.8727    4.9989   -3.6778 H   0  0  0  0  0  0  0  0  0  0  0  0
    0.6374    8.6068   -2.5984 H   0  0  0  0  0  0  0  0  0  0  0  0
   -0.2227    7.6536   -3.8209 H   0  0  0  0  0  0  0  0  0  0  0  0
   -0.9949    8.0147   -2.2713 H   0  0  0  0  0  0  0  0  0  0  0  0
   -0.1670   -1.2672    1.5375 H   0  0  0  0  0  0  0  0  0  0  0  0
   -2.1812    0.1682    0.9341 H   0  0  0  0  0  0  0  0  0  0  0  0
  1  2  1  0  0  0  0
  1  5  1  0  0  0  0
  1 23  1  0  0  0  0
  1 24  1  6  0  0  0
  2  3  1  0  0  0  0
  2 22  1  0  0  0  0
  2 25  1  6  0  0  0
  3  4  1  0  0  0  0
  3 26  1  1  0  0  0
  3  6  1  0  0  0  0
  4  5  1  0  0  0  0
  5 27  1  1  0  0  0
  5  8  1  0  0  0  0
  6  7  1  0  0  0  0
  6 28  1  0  0  0  0
  6 29  1  0  0  0  0
  7 30  1  0  0  0  0
  8  9  1  0  0  0  0
  8 10  1  0  0  0  0
  9 12  2  0  0  0  0
 10 11  2  0  0  0  0
 10 31  1  0  0  0  0
 12 11  1  0  0  0  0
 12 13  1  0  0  0  0
 13 14  2  0  0  0  0
 13 17  1  0  0  0  0
 14 15  1  0  0  0  0
 15 16  2  0  0  0  0
 15 32  1  0  0  0  0
 16  9  1  0  0  0  0
 17 18  1  0  0  0  0
 17 21  1  0  0  0  0
 18 19  2  0  0  0  0
 19 11  1  0  0  0  0
 19 20  1  0  0  0  0
 20 33  1  0  0  0  0
 20 34  1  0  0  0  0
 21 35  1  0  0  0  0
 21 36  1  0  0  0  0
 21 37  1  0  0  0  0
 22 38  1  0  0  0  0
 23 39  1  0  0  0  0
M  END
>  <Mol_ID>
1377

>  <Formula>
C13H16N6O4

>  <MolWeight>
320.30394

>  <Cat>
S1117

>  <Name>
Triciribine (NSC 154020)

>  <Synonyms>
VD-0002, vqd-002, API-2, TCN

>  <Target>
Akt,DNA/RNA Synthesis,HIV

>  <Form>
free base

>  <CAS>
35943-35-2

>  <URL>
http://selleckchem.com/products/Triciribine.html

$$$$
