untitled.cdx
 OpenBabel08302521393D

 47 50  0  0  0  0  0  0  0  0999 V2000
    1.1640   -0.3079    0.6910 C   0  0  0  0  0  0  0  0  0  0  0  0
    0.5555   -1.2982   -0.0817 C   0  0  0  0  0  0  0  0  0  0  0  0
   -0.5884   -0.9902   -0.8032 C   0  0  0  0  0  0  0  0  0  0  0  0
   -1.1605    0.2718   -0.6724 C   0  0  0  0  0  0  0  0  0  0  0  0
   -0.5802    1.2537    0.1425 C   0  0  0  0  0  0  0  0  0  0  0  0
    0.6269    0.9710    0.7696 C   0  0  0  0  0  0  0  0  0  0  0  0
   -1.2485    2.4913    0.3703 N   0  0  0  0  0  0  0  0  0  0  0  0
   -2.6334    2.5798    0.2308 C   0  0  0  0  0  0  0  0  0  0  0  0
   -3.2367    3.9695    0.3720 C   0  0  0  0  0  0  0  0  0  0  0  0
   -2.3671    5.0737    0.2082 O   0  0  0  0  0  0  0  0  0  0  0  0
   -1.2164    4.9027    1.0289 C   0  0  0  0  0  0  0  0  0  0  0  0
   -0.4246    3.6962    0.5500 C   0  0  0  0  0  0  0  0  0  0  0  0
   -3.4031    1.6201    0.0883 O   0  0  0  0  0  0  0  0  0  0  0  0
    1.0990   -2.5931   -0.1125 N   0  0  0  0  0  0  0  0  0  0  0  0
    1.9420   -3.1383    0.8336 C   0  0  0  0  0  0  0  0  0  0  0  0
    2.2318   -4.4272    0.4940 O   0  0  0  0  0  0  0  0  0  0  0  0
    1.7991   -4.6259   -0.8632 C   0  0  3  0  0  0  0  0  0  0  0  0
    0.7402   -3.5731   -1.0825 C   0  0  0  0  0  0  0  0  0  0  0  0
    2.3745   -2.6309    1.8659 O   0  0  0  0  0  0  0  0  0  0  0  0
    1.2596   -6.0364   -1.0438 C   0  0  0  0  0  0  0  0  0  0  0  0
    2.2753   -7.0261   -0.7549 N   0  0  0  0  0  0  0  0  0  0  0  0
    3.1401   -7.5145   -1.7168 C   0  0  0  0  0  0  0  0  0  0  0  0
    4.0960   -8.4953   -1.2205 C   0  0  0  0  0  0  0  0  0  0  0  0
    3.0880   -7.1345   -2.8827 O   0  0  0  0  0  0  0  0  0  0  0  0
    4.0708   -8.9818    0.4295 S   0  0  0  0  0  0  0  0  0  0  0  0
    5.3678  -10.0569    0.2112 C   0  0  0  0  0  0  0  0  0  0  0  0
    5.8307  -10.0544   -1.0856 C   0  0  0  0  0  0  0  0  0  0  0  0
    5.0942   -9.1554   -1.9172 C   0  0  0  0  0  0  0  0  0  0  0  0
    2.0622   -0.5081    1.2633 H   0  0  0  0  0  0  0  0  0  0  0  0
   -1.1111   -1.7204   -1.4136 H   0  0  0  0  0  0  0  0  0  0  0  0
   -2.0883    0.4554   -1.2065 H   0  0  0  0  0  0  0  0  0  0  0  0
    1.1366    1.6821    1.4087 H   0  0  0  0  0  0  0  0  0  0  0  0
   -4.0262    4.0520   -0.3808 H   0  0  0  0  0  0  0  0  0  0  0  0
   -3.7049    4.0182    1.3622 H   0  0  0  0  0  0  0  0  0  0  0  0
   -0.6063    5.8065    0.9496 H   0  0  0  0  0  0  0  0  0  0  0  0
   -1.5220    4.7928    2.0769 H   0  0  0  0  0  0  0  0  0  0  0  0
    0.0153    3.9102   -0.4322 H   0  0  0  0  0  0  0  0  0  0  0  0
    0.3907    3.5260    1.2586 H   0  0  0  0  0  0  0  0  0  0  0  0
    2.6648   -4.4553   -1.5065 H   0  0  0  0  0  0  0  0  0  0  0  0
   -0.2766   -3.9342   -0.8740 H   0  0  0  0  0  0  0  0  0  0  0  0
    0.7866   -3.1678   -2.0972 H   0  0  0  0  0  0  0  0  0  0  0  0
    0.4160   -6.2226   -0.3690 H   0  0  0  0  0  0  0  0  0  0  0  0
    0.9154   -6.1862   -2.0685 H   0  0  0  0  0  0  0  0  0  0  0  0
    2.5367   -7.1928    0.2116 H   0  0  0  0  0  0  0  0  0  0  0  0
    5.7303  -10.6341    1.0479 H   0  0  0  0  0  0  0  0  0  0  0  0
    6.6626  -10.6641   -1.4176 H   0  0  0  0  0  0  0  0  0  0  0  0
    5.2974   -8.9990   -2.9713 H   0  0  0  0  0  0  0  0  0  0  0  0
  1  2  2  0  0  0  0
  1 29  1  0  0  0  0
  2  3  1  0  0  0  0
  2 14  1  0  0  0  0
  3  4  2  0  0  0  0
  3 30  1  0  0  0  0
  4  5  1  0  0  0  0
  4 31  1  0  0  0  0
  5  6  2  0  0  0  0
  5  7  1  0  0  0  0
  6  1  1  0  0  0  0
  6 32  1  0  0  0  0
  7  8  1  0  0  0  0
  8  9  1  0  0  0  0
  8 13  2  0  0  0  0
  9 10  1  0  0  0  0
  9 33  1  0  0  0  0
  9 34  1  0  0  0  0
 10 11  1  0  0  0  0
 11 12  1  0  0  0  0
 11 35  1  0  0  0  0
 11 36  1  0  0  0  0
 12  7  1  0  0  0  0
 12 37  1  0  0  0  0
 12 38  1  0  0  0  0
 14 15  1  0  0  0  0
 15 16  1  0  0  0  0
 15 19  2  0  0  0  0
 16 17  1  0  0  0  0
 17 18  1  0  0  0  0
 17 20  1  0  0  0  0
 17 39  1  0  0  0  0
 18 14  1  0  0  0  0
 18 40  1  0  0  0  0
 18 41  1  0  0  0  0
 20 21  1  0  0  0  0
 20 42  1  0  0  0  0
 20 43  1  0  0  0  0
 21 22  1  0  0  0  0
 21 44  1  0  0  0  0
 22 23  1  0  0  0  0
 22 24  2  0  0  0  0
 23 25  1  0  0  0  0
 25 26  1  0  0  0  0
 26 27  2  0  0  0  0
 26 45  1  0  0  0  0
 27 28  1  0  0  0  0
 27 46  1  0  0  0  0
 28 23  2  0  0  0  0
 28 47  1  0  0  0  0
M  END
>  <Mol_ID>
794

>  <Formula>
C19H18ClN3O5S

>  <MolWeight>
435.88132

>  <Cat>
S3002

>  <Name>
Rivaroxaban (BAY 59-7939)

>  <Synonyms>
BAY 59-7939

>  <Target>
Factor Xa

>  <Form>
free base

>  <CAS>
366789-02-8

>  <URL>
http://selleckchem.com/products/Rivaroxaban.html

$$$$
