untitled.cdx
 OpenBabel08302520013D

 48 50  0  0  0  0  0  0  0  0999 V2000
    1.3319   -0.2714    0.0031 C   0  0  0  0  0  0  0  0  0  0  0  0
    0.4548   -1.3638   -0.0678 C   0  0  0  0  0  0  0  0  0  0  0  0
   -0.9275   -1.1300   -0.0546 C   0  0  0  0  0  0  0  0  0  0  0  0
   -1.4322    0.1665    0.0550 C   0  0  0  0  0  0  0  0  0  0  0  0
   -0.5534    1.2493    0.1665 C   0  0  0  0  0  0  0  0  0  0  0  0
    0.8290    1.0283    0.1126 C   0  0  0  0  0  0  0  0  0  0  0  0
   -1.0490    2.6399    0.3520 C   0  0  0  0  0  0  0  0  0  0  0  0
   -2.1936    2.7498    1.1217 N   0  0  0  0  0  0  0  0  0  0  0  0
   -0.3871    3.5623   -0.1134 O   0  0  0  0  0  0  0  0  0  0  0  0
   -2.9028    3.9317    1.4353 C   0  0  0  0  0  0  0  0  0  0  0  0
   -2.7059    5.1319    0.7465 C   0  0  0  0  0  0  0  0  0  0  0  0
   -3.4769    6.2551    1.0460 C   0  0  0  0  0  0  0  0  0  0  0  0
   -4.4670    6.1807    2.0201 C   0  0  0  0  0  0  0  0  0  0  0  0
   -4.6797    4.9840    2.7089 C   0  0  0  0  0  0  0  0  0  0  0  0
   -3.8685    3.8684    2.4660 C   0  0  0  0  0  0  0  0  0  0  0  0
   -4.1460    2.6580    3.1447 N   0  0  0  0  0  0  0  0  0  0  0  0
    0.9767   -2.7784   -0.0943 C   0  0  0  0  0  0  0  0  0  0  0  0
    1.0917   -3.3045    1.2440 N   0  0  0  0  0  0  0  0  0  0  0  0
    0.0621   -3.9277    1.8787 C   0  0  0  0  0  0  0  0  0  0  0  0
    0.4021   -4.1480    3.1717 O   0  0  0  0  0  0  0  0  0  0  0  0
   -0.9997   -4.2429    1.3630 O   0  0  0  0  0  0  0  0  0  0  0  0
   -0.5486   -4.8982    3.9390 C   0  0  0  0  0  0  0  0  0  0  0  0
   -1.5331   -4.0059    4.6401 C   0  0  0  0  0  0  0  0  0  0  0  0
   -2.7510   -3.6829    4.0505 C   0  0  0  0  0  0  0  0  0  0  0  0
   -3.6995   -2.9139    4.6340 N   0  0  0  0  0  0  0  0  0  0  0  0
   -3.4226   -2.4393    5.8662 C   0  0  0  0  0  0  0  0  0  0  0  0
   -2.2347   -2.6847    6.5348 C   0  0  0  0  0  0  0  0  0  0  0  0
   -1.2744   -3.4743    5.9076 C   0  0  0  0  0  0  0  0  0  0  0  0
    2.4091   -0.4222   -0.0157 H   0  0  0  0  0  0  0  0  0  0  0  0
   -1.6230   -1.9670   -0.1145 H   0  0  0  0  0  0  0  0  0  0  0  0
   -2.5090    0.3124    0.0428 H   0  0  0  0  0  0  0  0  0  0  0  0
    1.5170    1.8702    0.1761 H   0  0  0  0  0  0  0  0  0  0  0  0
   -2.5620    1.9173    1.5607 H   0  0  0  0  0  0  0  0  0  0  0  0
   -1.9812    5.2098   -0.0582 H   0  0  0  0  0  0  0  0  0  0  0  0
   -3.3187    7.1789    0.4953 H   0  0  0  0  0  0  0  0  0  0  0  0
   -5.0815    7.0502    2.2383 H   0  0  0  0  0  0  0  0  0  0  0  0
   -5.4694    4.9413    3.4531 H   0  0  0  0  0  0  0  0  0  0  0  0
   -4.7033    2.8037    3.9833 H   0  0  0  0  0  0  0  0  0  0  0  0
   -3.3018    2.1424    3.3732 H   0  0  0  0  0  0  0  0  0  0  0  0
    0.3164   -3.4155   -0.6943 H   0  0  0  0  0  0  0  0  0  0  0  0
    1.9706   -2.8133   -0.5534 H   0  0  0  0  0  0  0  0  0  0  0  0
    1.8737   -3.0361    1.8221 H   0  0  0  0  0  0  0  0  0  0  0  0
   -1.0583   -5.6575    3.3313 H   0  0  0  0  0  0  0  0  0  0  0  0
    0.0226   -5.4619    4.6864 H   0  0  0  0  0  0  0  0  0  0  0  0
   -3.0143   -4.0517    3.0612 H   0  0  0  0  0  0  0  0  0  0  0  0
   -4.2071   -1.8385    6.3169 H   0  0  0  0  0  0  0  0  0  0  0  0
   -2.0656   -2.2756    7.5242 H   0  0  0  0  0  0  0  0  0  0  0  0
   -0.3360   -3.6823    6.4152 H   0  0  0  0  0  0  0  0  0  0  0  0
  1  2  2  0  0  0  0
  1 29  1  0  0  0  0
  2  3  1  0  0  0  0
  2 17  1  0  0  0  0
  3  4  2  0  0  0  0
  3 30  1  0  0  0  0
  4  5  1  0  0  0  0
  4 31  1  0  0  0  0
  5  6  2  0  0  0  0
  5  7  1  0  0  0  0
  6  1  1  0  0  0  0
  6 32  1  0  0  0  0
  7  8  1  0  0  0  0
  7  9  2  0  0  0  0
  8 10  1  0  0  0  0
  8 33  1  0  0  0  0
 10 11  2  0  0  0  0
 11 12  1  0  0  0  0
 11 34  1  0  0  0  0
 12 13  2  0  0  0  0
 12 35  1  0  0  0  0
 13 14  1  0  0  0  0
 13 36  1  0  0  0  0
 14 15  2  0  0  0  0
 14 37  1  0  0  0  0
 15 10  1  0  0  0  0
 15 16  1  0  0  0  0
 16 38  1  0  0  0  0
 16 39  1  0  0  0  0
 17 18  1  0  0  0  0
 17 40  1  0  0  0  0
 17 41  1  0  0  0  0
 18 19  1  0  0  0  0
 18 42  1  0  0  0  0
 19 20  1  0  0  0  0
 19 21  2  0  0  0  0
 20 22  1  0  0  0  0
 22 23  1  0  0  0  0
 22 43  1  0  0  0  0
 22 44  1  0  0  0  0
 23 24  2  0  0  0  0
 24 25  1  0  0  0  0
 24 45  1  0  0  0  0
 25 26  2  0  0  0  0
 26 27  1  0  0  0  0
 26 46  1  0  0  0  0
 27 28  2  0  0  0  0
 27 47  1  0  0  0  0
 28 23  1  0  0  0  0
 28 48  1  0  0  0  0
M  END
>  <Mol_ID>
34

>  <Formula>
C21H20N4O3

>  <MolWeight>
376.4085

>  <Cat>
S1053

>  <Name>
Entinostat (MS-275)

>  <Synonyms>
SNDX-275

>  <Target>
Apoptosis related,Autophagy,HDAC

>  <Form>
free base

>  <CAS>
209783-80-2

>  <URL>
http://selleckchem.com/products/MS-275.html

$$$$
