untitled.cdx
 OpenBabel08302519593D

 61 65  0  0  0  0  0  0  0  0999 V2000
    1.1846   -0.7970    0.0457 C   0  0  0  0  0  0  0  0  0  0  0  0
   -0.0027   -1.4837    0.0059 C   0  0  0  0  0  0  0  0  0  0  0  0
   -1.1803   -0.7578   -0.0374 C   0  0  0  0  0  0  0  0  0  0  0  0
   -1.1779    0.5834    0.0243 N   0  0  0  0  0  0  0  0  0  0  0  0
    0.0204    1.1814    0.0896 C   0  0  0  0  0  0  0  0  0  0  0  0
    1.1912    0.5357    0.0987 N   0  0  0  0  0  0  0  0  0  0  0  0
    2.3919   -1.5177   -0.0022 N   0  0  0  0  0  0  0  0  0  0  0  0
    0.1972    2.9493    0.1552 S   0  0  0  0  0  0  0  0  0  0  0  0
   -2.3688   -1.4698   -0.0697 N   0  0  0  0  0  0  0  0  0  0  0  0
   -1.4462    3.6014    0.1025 C   0  0  0  0  0  0  0  0  0  0  0  0
   -2.4020    3.2575    1.0553 C   0  0  0  0  0  0  0  0  0  0  0  0
   -3.6651    3.8552    1.0403 C   0  0  0  0  0  0  0  0  0  0  0  0
   -3.9886    4.8232    0.0876 C   0  0  0  0  0  0  0  0  0  0  0  0
   -3.0230    5.1794   -0.8610 C   0  0  0  0  0  0  0  0  0  0  0  0
   -1.7601    4.5756   -0.8501 C   0  0  0  0  0  0  0  0  0  0  0  0
   -3.6015   -0.8196    0.3808 C   0  0  0  0  0  0  0  0  0  0  0  0
   -4.5623   -1.9427    0.8544 C   0  0  0  0  0  0  0  0  0  0  0  0
   -4.8405   -2.9593   -0.1948 N   0  0  0  0  0  0  0  0  0  0  0  0
   -3.5700   -3.4929   -0.7411 C   0  0  0  0  0  0  0  0  0  0  0  0
   -2.5976   -2.3828   -1.2016 C   0  0  0  0  0  0  0  0  0  0  0  0
    3.5927   -1.0708   -0.4231 C   0  0  0  0  0  0  0  0  0  0  0  0
    4.0276    0.2747   -0.4624 C   0  0  0  0  0  0  0  0  0  0  0  0
    5.2481    0.2500   -1.0928 C   0  0  0  0  0  0  0  0  0  0  0  0
    5.5012   -1.0701   -1.3308 N   0  0  0  0  0  0  0  0  0  0  0  0
    4.5226   -1.8926   -0.9161 N   0  0  0  0  0  0  0  0  0  0  0  0
   -5.6476   -4.0477    0.3545 C   0  0  0  0  0  0  0  0  0  0  0  0
   -5.2320    5.4916    0.0426 N   0  0  0  0  0  0  0  0  0  0  0  0
   -6.3051    5.2982    0.8896 C   0  0  0  0  0  0  0  0  0  0  0  0
   -6.3903    4.4697    1.7874 O   0  0  0  0  0  0  0  0  0  0  0  0
   -7.4709    6.2134    0.7025 C   0  0  0  0  0  0  0  0  0  0  0  0
   -7.8485    6.9021   -0.5837 C   0  0  0  0  0  0  0  0  0  0  0  0
   -7.2666    7.7026    0.5476 C   0  0  0  0  0  0  0  0  0  0  0  0
    6.1526    1.3401   -1.5027 C   0  0  0  0  0  0  0  0  0  0  0  0
   -0.0238   -2.5652    0.0123 H   0  0  0  0  0  0  0  0  0  0  0  0
    2.2652   -2.5128   -0.1282 H   0  0  0  0  0  0  0  0  0  0  0  0
   -2.1786    2.5253    1.8284 H   0  0  0  0  0  0  0  0  0  0  0  0
   -4.3674    3.5478    1.8076 H   0  0  0  0  0  0  0  0  0  0  0  0
   -3.2253    5.9367   -1.6140 H   0  0  0  0  0  0  0  0  0  0  0  0
   -1.0160    4.8844   -1.5822 H   0  0  0  0  0  0  0  0  0  0  0  0
   -4.0586   -0.2385   -0.4303 H   0  0  0  0  0  0  0  0  0  0  0  0
   -3.4152   -0.1451    1.2246 H   0  0  0  0  0  0  0  0  0  0  0  0
   -5.5023   -1.4864    1.1833 H   0  0  0  0  0  0  0  0  0  0  0  0
   -4.1080   -2.4318    1.7283 H   0  0  0  0  0  0  0  0  0  0  0  0
   -3.0584   -4.1010    0.0182 H   0  0  0  0  0  0  0  0  0  0  0  0
   -3.7836   -4.1464   -1.5952 H   0  0  0  0  0  0  0  0  0  0  0  0
   -3.0256   -1.8330   -2.0507 H   0  0  0  0  0  0  0  0  0  0  0  0
   -1.6750   -2.8553   -1.5576 H   0  0  0  0  0  0  0  0  0  0  0  0
    3.5045    1.1549   -0.1223 H   0  0  0  0  0  0  0  0  0  0  0  0
    6.3080   -1.4792   -1.7886 H   0  0  0  0  0  0  0  0  0  0  0  0
   -5.8889   -4.7768   -0.4268 H   0  0  0  0  0  0  0  0  0  0  0  0
   -5.1359   -4.5748    1.1686 H   0  0  0  0  0  0  0  0  0  0  0  0
   -6.5992   -3.6647    0.7375 H   0  0  0  0  0  0  0  0  0  0  0  0
   -5.3281    6.2041   -0.6649 H   0  0  0  0  0  0  0  0  0  0  0  0
   -8.3134    5.9098    1.3211 H   0  0  0  0  0  0  0  0  0  0  0  0
   -7.2578    6.7448   -1.4759 H   0  0  0  0  0  0  0  0  0  0  0  0
   -8.9082    7.0242   -0.7880 H   0  0  0  0  0  0  0  0  0  0  0  0
   -7.9222    8.3479    1.1227 H   0  0  0  0  0  0  0  0  0  0  0  0
   -6.2608    8.0917    0.4405 H   0  0  0  0  0  0  0  0  0  0  0  0
    7.1434    1.2093   -1.0587 H   0  0  0  0  0  0  0  0  0  0  0  0
    6.2538    1.3645   -2.5922 H   0  0  0  0  0  0  0  0  0  0  0  0
    5.7596    2.3103   -1.1808 H   0  0  0  0  0  0  0  0  0  0  0  0
  1  2  2  0  0  0  0
  1  7  1  0  0  0  0
  2  3  1  0  0  0  0
  2 34  1  0  0  0  0
  3  4  2  0  0  0  0
  3  9  1  0  0  0  0
  4  5  1  0  0  0  0
  5  6  2  0  0  0  0
  5  8  1  0  0  0  0
  6  1  1  0  0  0  0
  7 21  1  0  0  0  0
  7 35  1  0  0  0  0
  8 10  1  0  0  0  0
  9 16  1  0  0  0  0
 10 11  2  0  0  0  0
 11 12  1  0  0  0  0
 11 36  1  0  0  0  0
 12 13  2  0  0  0  0
 12 37  1  0  0  0  0
 13 14  1  0  0  0  0
 13 27  1  0  0  0  0
 14 15  2  0  0  0  0
 14 38  1  0  0  0  0
 15 10  1  0  0  0  0
 15 39  1  0  0  0  0
 16 17  1  0  0  0  0
 16 40  1  0  0  0  0
 16 41  1  0  0  0  0
 17 18  1  0  0  0  0
 17 42  1  0  0  0  0
 17 43  1  0  0  0  0
 18 19  1  0  0  0  0
 18 26  1  0  0  0  0
 19 20  1  0  0  0  0
 19 44  1  0  0  0  0
 19 45  1  0  0  0  0
 20  9  1  0  0  0  0
 20 46  1  0  0  0  0
 20 47  1  0  0  0  0
 21 22  1  0  0  0  0
 22 23  2  0  0  0  0
 22 48  1  0  0  0  0
 23 24  1  0  0  0  0
 23 33  1  0  0  0  0
 24 25  1  0  0  0  0
 24 49  1  0  0  0  0
 25 21  2  0  0  0  0
 26 50  1  0  0  0  0
 26 51  1  0  0  0  0
 26 52  1  0  0  0  0
 27 28  1  0  0  0  0
 27 53  1  0  0  0  0
 28 29  2  0  0  0  0
 28 30  1  0  0  0  0
 30 31  1  0  0  0  0
 30 54  1  0  0  0  0
 31 32  1  0  0  0  0
 31 55  1  0  0  0  0
 31 56  1  0  0  0  0
 32 30  1  0  0  0  0
 32 57  1  0  0  0  0
 32 58  1  0  0  0  0
 33 59  1  0  0  0  0
 33 60  1  0  0  0  0
 33 61  1  0  0  0  0
M  END
>  <Mol_ID>
31

>  <Formula>
C23H28N8OS

>  <MolWeight>
464.58642

>  <Cat>
S1048

>  <Name>
Tozasertib

>  <Synonyms>
VX-680, MK-0457

>  <Target>
Aurora Kinase,Autophagy,Bcr-Abl,FLT3

>  <Form>
free base

>  <CAS>
639089-54-6

>  <URL>
http://selleckchem.com/products/VX-680(MK-0457).html

$$$$
