UPF-1069.cdx
 OpenBabel08302520403D

 34 36  0  0  0  0  0  0  0  0999 V2000
    2.4917    0.9620    0.1651 C   0  0  0  0  0  0  0  0  0  0  0  0
    2.7314   -0.4055   -0.0039 C   0  0  0  0  0  0  0  0  0  0  0  0
    1.6804   -1.3096   -0.2421 C   0  0  0  0  0  0  0  0  0  0  0  0
    0.3651   -0.8163   -0.3793 C   0  0  0  0  0  0  0  0  0  0  0  0
    0.1344    0.5514   -0.0982 C   0  0  0  0  0  0  0  0  0  0  0  0
    1.1871    1.4388    0.1470 C   0  0  0  0  0  0  0  0  0  0  0  0
   -0.7799   -1.5951   -0.8763 C   0  0  0  0  0  0  0  0  0  0  0  0
   -2.0207   -1.1051   -0.8004 C   0  0  0  0  0  0  0  0  0  0  0  0
   -2.2568    0.1571   -0.3367 N   0  0  0  0  0  0  0  0  0  0  0  0
   -1.2628    1.0626   -0.0393 C   0  0  0  0  0  0  0  0  0  0  0  0
    2.0916   -2.6171   -0.3847 O   0  0  0  0  0  0  0  0  0  0  0  0
    1.3142   -3.5960    0.2957 C   0  0  0  0  0  0  0  0  0  0  0  0
    1.9125   -4.9999    0.2409 C   0  0  0  0  0  0  0  0  0  0  0  0
    3.1736   -5.3250    0.9675 C   0  0  0  0  0  0  0  0  0  0  0  0
    1.3295   -5.9036   -0.3645 O   0  0  0  0  0  0  0  0  0  0  0  0
   -1.5183    2.2203    0.2735 O   0  0  0  0  0  0  0  0  0  0  0  0
    3.8541   -4.3984    1.7620 C   0  0  0  0  0  0  0  0  0  0  0  0
    5.0375   -4.7713    2.4098 C   0  0  0  0  0  0  0  0  0  0  0  0
    5.5417   -6.0652    2.2735 C   0  0  0  0  0  0  0  0  0  0  0  0
    4.8579   -6.9982    1.4999 C   0  0  0  0  0  0  0  0  0  0  0  0
    3.6781   -6.6311    0.8519 C   0  0  0  0  0  0  0  0  0  0  0  0
    3.3178    1.6527    0.3223 H   0  0  0  0  0  0  0  0  0  0  0  0
    3.7571   -0.7668    0.0432 H   0  0  0  0  0  0  0  0  0  0  0  0
    0.9876    2.4973    0.3044 H   0  0  0  0  0  0  0  0  0  0  0  0
   -0.6134   -2.5401   -1.3721 H   0  0  0  0  0  0  0  0  0  0  0  0
   -2.8862   -1.6690   -1.1376 H   0  0  0  0  0  0  0  0  0  0  0  0
   -3.2025    0.5193   -0.2967 H   0  0  0  0  0  0  0  0  0  0  0  0
    1.1100   -3.3222    1.3371 H   0  0  0  0  0  0  0  0  0  0  0  0
    0.3579   -3.7286   -0.2079 H   0  0  0  0  0  0  0  0  0  0  0  0
    3.4895   -3.3849    1.8939 H   0  0  0  0  0  0  0  0  0  0  0  0
    5.5725   -4.0492    3.0225 H   0  0  0  0  0  0  0  0  0  0  0  0
    6.4675   -6.3477    2.7699 H   0  0  0  0  0  0  0  0  0  0  0  0
    5.2417   -8.0099    1.3962 H   0  0  0  0  0  0  0  0  0  0  0  0
    3.1529   -7.3749    0.2531 H   0  0  0  0  0  0  0  0  0  0  0  0
  1  2  2  0  0  0  0
  1 22  1  0  0  0  0
  2  3  1  0  0  0  0
  2 23  1  0  0  0  0
  3  4  2  0  0  0  0
  3 11  1  0  0  0  0
  4  5  1  0  0  0  0
  4  7  1  0  0  0  0
  5  6  2  0  0  0  0
  6  1  1  0  0  0  0
  6 24  1  0  0  0  0
  7  8  2  0  0  0  0
  7 25  1  0  0  0  0
  8  9  1  0  0  0  0
  8 26  1  0  0  0  0
  9 10  1  0  0  0  0
  9 27  1  0  0  0  0
 10  5  1  0  0  0  0
 10 16  2  0  0  0  0
 11 12  1  0  0  0  0
 12 13  1  0  0  0  0
 12 28  1  0  0  0  0
 12 29  1  0  0  0  0
 13 14  1  0  0  0  0
 13 15  2  0  0  0  0
 14 17  2  0  0  0  0
 17 18  1  0  0  0  0
 17 30  1  0  0  0  0
 18 19  2  0  0  0  0
 18 31  1  0  0  0  0
 19 20  1  0  0  0  0
 19 32  1  0  0  0  0
 20 21  2  0  0  0  0
 20 33  1  0  0  0  0
 21 14  1  0  0  0  0
 21 34  1  0  0  0  0
M  END
>  <Mol_ID>
3875

>  <Formula>
C17H13NO3

>  <MolWeight>
279.29002

>  <Cat>
S8038

>  <Name>
UPF 1069

>  <Synonyms>
N/A

>  <Target>
PARP

>  <Form>
free base

>  <CAS>
1048371-03-4

>  <URL>
http://selleckchem.com/products/upf-1069.html

$$$$
