Ureidosuccinic acid
 OpenBabel08302520393D

 20 19  0  0  0  0  0  0  0  0999 V2000
    0.6842    0.0023    0.0853 C   0  0  3  0  0  0  0  0  0  0  0  0
    0.3834    0.6922   -1.2447 C   0  0  0  0  0  0  0  0  0  0  0  0
    0.0527   -1.3193    0.2457 N   0  0  0  0  0  0  0  0  0  0  0  0
    0.3569    0.9897    1.2117 C   0  0  0  0  0  0  0  0  0  0  0  0
    0.8559   -0.1533   -2.3898 C   0  0  0  0  0  0  0  0  0  0  0  0
   -1.2537   -1.5866    0.0414 C   0  0  0  0  0  0  0  0  0  0  0  0
   -0.9168    0.9540    1.6631 O   0  0  0  0  0  0  0  0  0  0  0  0
    1.1452    1.8452    1.5939 O   0  0  0  0  0  0  0  0  0  0  0  0
   -0.1316   -0.5636   -3.2148 O   0  0  0  0  0  0  0  0  0  0  0  0
    2.0242   -0.4688   -2.5597 O   0  0  0  0  0  0  0  0  0  0  0  0
   -1.5720   -2.8912    0.0711 N   0  0  0  0  0  0  0  0  0  0  0  0
   -2.0795   -0.7028   -0.1473 O   0  0  0  0  0  0  0  0  0  0  0  0
    1.7601   -0.2027    0.1628 H   0  0  0  0  0  0  0  0  0  0  0  0
   -0.6791    0.9328   -1.3504 H   0  0  0  0  0  0  0  0  0  0  0  0
    0.9051    1.6550   -1.3143 H   0  0  0  0  0  0  0  0  0  0  0  0
    0.6601   -2.0863    0.5003 H   0  0  0  0  0  0  0  0  0  0  0  0
   -1.5043    0.3611    1.1404 H   0  0  0  0  0  0  0  0  0  0  0  0
   -1.0308   -0.2868   -2.9476 H   0  0  0  0  0  0  0  0  0  0  0  0
   -2.5519   -3.1336   -0.0097 H   0  0  0  0  0  0  0  0  0  0  0  0
   -0.9517   -3.5959    0.4397 H   0  0  0  0  0  0  0  0  0  0  0  0
  1  2  1  0  0  0  0
  1  3  1  0  0  0  0
  1  4  1  0  0  0  0
  1 13  1  0  0  0  0
  2  5  1  0  0  0  0
  2 14  1  0  0  0  0
  2 15  1  0  0  0  0
  3  6  1  0  0  0  0
  3 16  1  0  0  0  0
  4  7  1  0  0  0  0
  4  8  2  0  0  0  0
  5  9  1  0  0  0  0
  5 10  2  0  0  0  0
  6 11  1  0  0  0  0
  6 12  2  0  0  0  0
  7 17  1  0  0  0  0
  9 18  1  0  0  0  0
 11 19  1  0  0  0  0
 11 20  1  0  0  0  0
M  END
>  <Mol_ID>
3616

>  <Formula>
C5H8N2O5

>  <MolWeight>
176.12742

>  <Cat>
S6259

>  <Name>
Ureidosuccinic acid

>  <Synonyms>
Carbamoyl aspartic acid

>  <Target>
Others

>  <Form>
free base

>  <CAS>
923-37-5

>  <URL>
http://www.selleck.cn/products/ureidosuccinic-acid.html

$$$$
