uridine triacetate
 OpenBabel08302520403D

 44 45  0  0  0  0  0  0  0  0999 V2000
    0.3071   -1.1480    0.2594 C   0  0  2  0  0  0  0  0  0  0  0  0
   -1.0738   -0.7259   -0.2924 C   0  0  1  0  0  0  0  0  0  0  0  0
    0.2914   -1.6033    1.6636 N   0  0  0  0  0  0  0  0  0  0  0  0
    1.1657    0.0167    0.1191 O   0  0  0  0  0  0  0  0  0  0  0  0
   -1.0927    0.7261    0.1806 C   0  0  1  0  0  0  0  0  0  0  0  0
   -1.0202   -0.8149   -1.7382 O   0  0  0  0  0  0  0  0  0  0  0  0
   -0.3346   -2.8164    1.9246 C   0  0  0  0  0  0  0  0  0  0  0  0
    0.9291   -0.9049    2.6735 C   0  0  0  0  0  0  0  0  0  0  0  0
    0.3353    1.1890   -0.1099 C   0  0  1  0  0  0  0  0  0  0  0  0
   -2.1980    1.5579   -0.2065 O   0  0  0  0  0  0  0  0  0  0  0  0
   -1.9362   -1.6048   -2.3575 C   0  0  0  0  0  0  0  0  0  0  0  0
   -0.3381   -3.2165    3.2396 N   0  0  0  0  0  0  0  0  0  0  0  0
   -0.8717   -3.5059    1.0626 O   0  0  0  0  0  0  0  0  0  0  0  0
    0.9367   -1.3143    3.9428 C   0  0  0  0  0  0  0  0  0  0  0  0
    0.8080    2.3322    0.8020 C   0  0  0  0  0  0  0  0  0  0  0  0
   -2.4477    1.9098   -1.4897 C   0  0  0  0  0  0  0  0  0  0  0  0
   -1.7897   -1.5325   -3.8508 C   0  0  0  0  0  0  0  0  0  0  0  0
   -2.8083   -2.2492   -1.7932 O   0  0  0  0  0  0  0  0  0  0  0  0
    0.2708   -2.5777    4.2799 C   0  0  0  0  0  0  0  0  0  0  0  0
    2.1660    2.7044    0.4693 O   0  0  0  0  0  0  0  0  0  0  0  0
   -3.6989    2.7407   -1.5625 C   0  0  0  0  0  0  0  0  0  0  0  0
   -1.7486    1.6475   -2.4547 O   0  0  0  0  0  0  0  0  0  0  0  0
    0.2815   -3.0152    5.4237 O   0  0  0  0  0  0  0  0  0  0  0  0
    3.1252    2.4787    1.4070 C   0  0  0  0  0  0  0  0  0  0  0  0
    4.4748    2.9255    0.9192 C   0  0  0  0  0  0  0  0  0  0  0  0
    2.9313    2.0181    2.5250 O   0  0  0  0  0  0  0  0  0  0  0  0
    0.7443   -1.9516   -0.3451 H   0  0  0  0  0  0  0  0  0  0  0  0
   -1.9156   -1.2921    0.1143 H   0  0  0  0  0  0  0  0  0  0  0  0
   -1.2053    0.6822    1.2725 H   0  0  0  0  0  0  0  0  0  0  0  0
    1.4516    0.0064    2.4145 H   0  0  0  0  0  0  0  0  0  0  0  0
    0.4776    1.4843   -1.1544 H   0  0  0  0  0  0  0  0  0  0  0  0
   -0.7819   -4.0983    3.4453 H   0  0  0  0  0  0  0  0  0  0  0  0
    1.4294   -0.7669    4.7356 H   0  0  0  0  0  0  0  0  0  0  0  0
    0.1886    3.2214    0.6520 H   0  0  0  0  0  0  0  0  0  0  0  0
    0.7215    2.0532    1.8573 H   0  0  0  0  0  0  0  0  0  0  0  0
   -2.1951   -2.4463   -4.2969 H   0  0  0  0  0  0  0  0  0  0  0  0
   -2.3399   -0.6700   -4.2346 H   0  0  0  0  0  0  0  0  0  0  0  0
   -0.7369   -1.4652   -4.1375 H   0  0  0  0  0  0  0  0  0  0  0  0
   -3.4291    3.7945   -1.6644 H   0  0  0  0  0  0  0  0  0  0  0  0
   -4.3050    2.4202   -2.4144 H   0  0  0  0  0  0  0  0  0  0  0  0
   -4.3052    2.6133   -0.6600 H   0  0  0  0  0  0  0  0  0  0  0  0
    4.7501    3.8647    1.4070 H   0  0  0  0  0  0  0  0  0  0  0  0
    5.2189    2.1562    1.1466 H   0  0  0  0  0  0  0  0  0  0  0  0
    4.4703    3.0748   -0.1642 H   0  0  0  0  0  0  0  0  0  0  0  0
  1  2  1  0  0  0  0
  1  3  1  0  0  0  0
  1  4  1  0  0  0  0
  1 27  1  6  0  0  0
  2  5  1  0  0  0  0
  2  6  1  0  0  0  0
  2 28  1  1  0  0  0
  3  7  1  0  0  0  0
  3  8  1  0  0  0  0
  4  9  1  0  0  0  0
  5 10  1  0  0  0  0
  5  9  1  0  0  0  0
  5 29  1  1  0  0  0
  6 11  1  0  0  0  0
  7 12  1  0  0  0  0
  7 13  2  0  0  0  0
  8 14  2  0  0  0  0
  8 30  1  0  0  0  0
  9 31  1  6  0  0  0
  9 15  1  0  0  0  0
 10 16  1  0  0  0  0
 11 17  1  0  0  0  0
 11 18  2  0  0  0  0
 12 19  1  0  0  0  0
 12 32  1  0  0  0  0
 14 19  1  0  0  0  0
 14 33  1  0  0  0  0
 15 20  1  0  0  0  0
 15 34  1  0  0  0  0
 15 35  1  0  0  0  0
 16 21  1  0  0  0  0
 16 22  2  0  0  0  0
 17 36  1  0  0  0  0
 17 37  1  0  0  0  0
 17 38  1  0  0  0  0
 19 23  2  0  0  0  0
 20 24  1  0  0  0  0
 21 39  1  0  0  0  0
 21 40  1  0  0  0  0
 21 41  1  0  0  0  0
 24 25  1  0  0  0  0
 24 26  2  0  0  0  0
 25 42  1  0  0  0  0
 25 43  1  0  0  0  0
 25 44  1  0  0  0  0
M  END
>  <Mol_ID>
3795

>  <Formula>
C15H18N2O9

>  <MolWeight>
370.31142

>  <Cat>
S6484

>  <Name>
uridine triacetate

>  <Synonyms>
Vistonuridine, PN401

>  <Target>
Others

>  <Form>
triacetate

>  <CAS>
4105-38-8

>  <URL>
http://www.selleck.cn/products/uridine-triacetate.html

$$$$
