USP25/28 inhibitor AZ1
 OpenBabel08302521233D

 41 42  0  0  0  0  0  0  0  0999 V2000
   -1.6221    0.2353    0.0005 Br  0  0  0  0  0  0  0  0  0  0  0  0
    9.0578    4.0759   -1.5842 F   0  0  0  0  0  0  0  0  0  0  0  0
    8.4907    0.1512   -2.8239 F   0  0  0  0  0  0  0  0  0  0  0  0
    8.7358    2.1195   -3.7051 F   0  0  0  0  0  0  0  0  0  0  0  0
   10.0947    1.4404   -2.1419 F   0  0  0  0  0  0  0  0  0  0  0  0
    4.4398   -0.0613    0.0712 O   0  0  0  0  0  0  0  0  0  0  0  0
    0.8739   -3.1185   -4.0676 O   0  0  0  0  0  0  0  0  0  0  0  0
    2.3996   -3.1536   -1.6176 N   0  0  0  0  0  0  0  0  0  0  0  0
    2.3135   -1.1615   -0.1264 C   0  0  0  0  0  0  0  0  0  0  0  0
    2.9221   -2.5256   -0.3832 C   0  0  0  0  0  0  0  0  0  0  0  0
    3.0690    0.0186    0.0361 C   0  0  0  0  0  0  0  0  0  0  0  0
    5.1109    0.8895    0.9235 C   0  0  0  0  0  0  0  0  0  0  0  0
    6.0794    1.7808    0.1641 C   0  0  0  0  0  0  0  0  0  0  0  0
    2.8419   -2.4162   -2.8177 C   0  0  0  0  0  0  0  0  0  0  0  0
    0.9047   -1.0798   -0.0965 C   0  0  0  0  0  0  0  0  0  0  0  0
    2.4057    1.2465    0.0819 C   0  0  0  0  0  0  0  0  0  0  0  0
    6.8653    1.2598   -0.8754 C   0  0  0  0  0  0  0  0  0  0  0  0
    7.8828    2.0241   -1.4731 C   0  0  0  0  0  0  0  0  0  0  0  0
    6.3117    3.1050    0.5807 C   0  0  0  0  0  0  0  0  0  0  0  0
    0.2635    0.1495    0.0021 C   0  0  0  0  0  0  0  0  0  0  0  0
    1.0092    1.3168    0.0730 C   0  0  0  0  0  0  0  0  0  0  0  0
    2.2994   -3.0693   -4.0966 C   0  0  0  0  0  0  0  0  0  0  0  0
    8.0842    3.3328   -1.0408 C   0  0  0  0  0  0  0  0  0  0  0  0
    7.3029    3.8821   -0.0290 C   0  0  0  0  0  0  0  0  0  0  0  0
    8.7866    1.4494   -2.5220 C   0  0  0  0  0  0  0  0  0  0  0  0
    0.6423   -3.2998   -3.1360 H   0  0  0  0  0  0  0  0  0  0  0  0
    2.7543   -4.1090   -1.6665 H   0  0  0  0  0  0  0  0  0  0  0  0
    4.0159   -2.4994   -0.4061 H   0  0  0  0  0  0  0  0  0  0  0  0
    2.6481   -3.1732    0.4614 H   0  0  0  0  0  0  0  0  0  0  0  0
    4.4248    1.4884    1.5354 H   0  0  0  0  0  0  0  0  0  0  0  0
    5.7068    0.3096    1.6394 H   0  0  0  0  0  0  0  0  0  0  0  0
    2.4575   -1.3910   -2.7810 H   0  0  0  0  0  0  0  0  0  0  0  0
    3.9350   -2.3820   -2.8642 H   0  0  0  0  0  0  0  0  0  0  0  0
    0.3149   -1.9899   -0.1998 H   0  0  0  0  0  0  0  0  0  0  0  0
    2.9576    2.1853    0.0950 H   0  0  0  0  0  0  0  0  0  0  0  0
    6.7017    0.2333   -1.2021 H   0  0  0  0  0  0  0  0  0  0  0  0
    5.7392    3.5398    1.3994 H   0  0  0  0  0  0  0  0  0  0  0  0
    0.5226    2.2871    0.1113 H   0  0  0  0  0  0  0  0  0  0  0  0
    2.5995   -2.4858   -4.9729 H   0  0  0  0  0  0  0  0  0  0  0  0
    2.6779   -4.0890   -4.2096 H   0  0  0  0  0  0  0  0  0  0  0  0
    7.4949    4.8991    0.2996 H   0  0  0  0  0  0  0  0  0  0  0  0
  1 20  1  0  0  0  0
  2 23  1  0  0  0  0
  3 25  1  0  0  0  0
  4 25  1  0  0  0  0
  5 25  1  0  0  0  0
  6 11  1  0  0  0  0
  6 12  1  0  0  0  0
  7 22  1  0  0  0  0
  7 26  1  0  0  0  0
  8 10  1  0  0  0  0
  8 14  1  0  0  0  0
  8 27  1  0  0  0  0
  9 10  1  0  0  0  0
  9 11  2  0  0  0  0
  9 15  1  0  0  0  0
 10 28  1  0  0  0  0
 10 29  1  0  0  0  0
 11 16  1  0  0  0  0
 12 13  1  0  0  0  0
 12 30  1  0  0  0  0
 12 31  1  0  0  0  0
 13 17  2  0  0  0  0
 13 19  1  0  0  0  0
 14 22  1  0  0  0  0
 14 32  1  0  0  0  0
 14 33  1  0  0  0  0
 15 20  2  0  0  0  0
 15 34  1  0  0  0  0
 16 21  2  0  0  0  0
 16 35  1  0  0  0  0
 17 18  1  0  0  0  0
 17 36  1  0  0  0  0
 18 23  2  0  0  0  0
 18 25  1  0  0  0  0
 19 24  2  0  0  0  0
 19 37  1  0  0  0  0
 20 21  1  0  0  0  0
 21 38  1  0  0  0  0
 22 39  1  0  0  0  0
 22 40  1  0  0  0  0
 23 24  1  0  0  0  0
 24 41  1  0  0  0  0
M  END
>  <Mol_ID>
4857

>  <Formula>
C17H16BrF4NO2

>  <MolWeight>
422.2120528

>  <Cat>
S8904

>  <Name>
USP25/28 inhibitor AZ1

>  <Synonyms>
N/A

>  <Target>
DUB

>  <Form>
Free Base

>  <CAS>
2165322-94-9

>  <URL>
http://www.selleck.cn/products/usp25-28-inhibitor-az1.html

$$$$
