Vadadustat
 OpenBabel08302521223D

 32 33  0  0  0  0  0  0  0  0999 V2000
   -2.8755   -1.0139   -3.9687 C   0  0  0  0  0  0  0  0  0  0  0  0
   -2.0550    0.0918   -3.3203 C   0  0  0  0  0  0  0  0  0  0  0  0
   -3.8323   -1.5679   -3.4476 O   0  0  0  0  0  0  0  0  0  0  0  0
   -2.4374   -1.3427   -5.2095 O   0  0  0  0  0  0  0  0  0  0  0  0
   -2.5305    0.4138   -1.9954 N   0  0  0  0  0  0  0  0  0  0  0  0
   -1.9417    1.4075   -1.2382 C   0  0  0  0  0  0  0  0  0  0  0  0
   -1.0029    2.0651   -1.6710 O   0  0  0  0  0  0  0  0  0  0  0  0
   -2.5411    1.5818    0.1370 C   0  0  0  0  0  0  0  0  0  0  0  0
   -2.0503    2.5027    1.0593 C   0  0  0  0  0  0  0  0  0  0  0  0
   -2.6231    2.5391    2.3347 C   0  0  0  0  0  0  0  0  0  0  0  0
   -3.6885    1.6898    2.6777 C   0  0  0  0  0  0  0  0  0  0  0  0
   -4.1264    0.8366    1.6591 C   0  0  0  0  0  0  0  0  0  0  0  0
   -3.5850    0.7473    0.4166 N   0  0  0  0  0  0  0  0  0  0  0  0
   -1.0304    3.3593    0.7659 O   0  0  0  0  0  0  0  0  0  0  0  0
   -4.2978    1.6936    4.0303 C   0  0  0  0  0  0  0  0  0  0  0  0
   -4.3553    2.8637    4.8125 C   0  0  0  0  0  0  0  0  0  0  0  0
   -4.9194    2.8648    6.0937 C   0  0  0  0  0  0  0  0  0  0  0  0
   -5.4534    1.6953    6.6222 C   0  0  0  0  0  0  0  0  0  0  0  0
   -5.4133    0.5241    5.8745 C   0  0  0  0  0  0  0  0  0  0  0  0
   -4.8364    0.5230    4.5989 C   0  0  0  0  0  0  0  0  0  0  0  0
   -1.0135   -0.2342   -3.2403 H   0  0  0  0  0  0  0  0  0  0  0  0
   -2.1161    0.9951   -3.9367 H   0  0  0  0  0  0  0  0  0  0  0  0
   -1.6640   -0.8252   -5.5063 H   0  0  0  0  0  0  0  0  0  0  0  0
   -3.3011   -0.1131   -1.5834 H   0  0  0  0  0  0  0  0  0  0  0  0
   -2.2178    3.2212    3.0769 H   0  0  0  0  0  0  0  0  0  0  0  0
   -4.9698    0.1659    1.8113 H   0  0  0  0  0  0  0  0  0  0  0  0
   -0.8768    3.9719    1.5022 H   0  0  0  0  0  0  0  0  0  0  0  0
   -3.9696    3.8071    4.4331 H   0  0  0  0  0  0  0  0  0  0  0  0
   -4.9441    3.7834    6.6750 H   0  0  0  0  0  0  0  0  0  0  0  0
   -5.8985    1.6962    7.6138 H   0  0  0  0  0  0  0  0  0  0  0  0
   -5.8267   -0.3949    6.2832 H   0  0  0  0  0  0  0  0  0  0  0  0
   -4.8043   -0.4235    4.0632 H   0  0  0  0  0  0  0  0  0  0  0  0
  1  2  1  0  0  0  0
  1  3  2  0  0  0  0
  1  4  1  0  0  0  0
  2  5  1  0  0  0  0
  2 21  1  0  0  0  0
  2 22  1  0  0  0  0
  4 23  1  0  0  0  0
  5  6  1  0  0  0  0
  5 24  1  0  0  0  0
  6  7  2  0  0  0  0
  6  8  1  0  0  0  0
  8  9  2  0  0  0  0
  8 13  1  0  0  0  0
  9 10  1  0  0  0  0
  9 14  1  0  0  0  0
 10 11  2  0  0  0  0
 10 25  1  0  0  0  0
 11 12  1  0  0  0  0
 11 15  1  0  0  0  0
 12 13  2  0  0  0  0
 12 26  1  0  0  0  0
 14 27  1  0  0  0  0
 15 16  2  0  0  0  0
 15 20  1  0  0  0  0
 16 17  1  0  0  0  0
 16 28  1  0  0  0  0
 17 18  2  0  0  0  0
 17 29  1  0  0  0  0
 18 19  1  0  0  0  0
 18 30  1  0  0  0  0
 19 20  2  0  0  0  0
 19 31  1  0  0  0  0
 20 32  1  0  0  0  0
M  END
>  <Mol_ID>
4713

>  <Formula>
C14H11ClN2O4

>  <MolWeight>
306.70114

>  <Cat>
S6490

>  <Name>
Vadadustat

>  <Synonyms>
AKB-6548, B-506, PG-1016548

>  <Target>
HIF

>  <Form>
Free Base

>  <CAS>
1000025-07-9

>  <URL>
http://www.selleck.cn/products/vadadustat.html

$$$$
