valganciclovir hydrochloride.cdx
 OpenBabel08302522043D

 49 50  0  0  0  0  0  0  0  0999 V2000
    4.2105   -0.2897   -4.3851 C   0  0  0  0  0  0  0  0  0  0  0  0
    4.7620    0.5398   -3.2246 C   0  0  0  0  0  0  0  0  0  0  0  0
    4.5946    0.3863   -5.7160 C   0  0  0  0  0  0  0  0  0  0  0  0
    2.6881   -0.5657   -4.3097 C   0  0  1  0  0  0  0  0  0  0  0  0
    2.2133   -1.3130   -3.0362 C   0  0  0  0  0  0  0  0  0  0  0  0
    1.9014    0.6793   -4.5024 N   0  0  0  0  0  0  0  0  0  0  0  0
    2.8980   -2.4830   -2.8571 O   0  0  0  0  0  0  0  0  0  0  0  0
    1.2914   -0.9463   -2.3091 O   0  0  0  0  0  0  0  0  0  0  0  0
    2.4250   -3.4333   -1.8593 C   0  0  0  0  0  0  0  0  0  0  0  0
    3.1449   -3.2595   -0.5038 C   0  0  3  0  0  0  0  0  0  0  0  0
    2.5776   -2.0482    0.2656 C   0  0  0  0  0  0  0  0  0  0  0  0
    1.1634   -2.1374    0.4371 O   0  0  0  0  0  0  0  0  0  0  0  0
    3.0782   -4.3542    0.4285 O   0  0  0  0  0  0  0  0  0  0  0  0
    3.3973   -5.6766    0.0216 C   0  0  0  0  0  0  0  0  0  0  0  0
    4.8242   -5.9780   -0.0421 N   0  0  0  0  0  0  0  0  0  0  0  0
    5.6698   -5.1476   -0.7463 C   0  0  0  0  0  0  0  0  0  0  0  0
    6.1481   -5.5379   -1.9027 N   0  0  0  0  0  0  0  0  0  0  0  0
    5.3527   -6.7893   -2.0895 C   0  0  3  0  0  0  0  0  0  0  0  0
    5.1070   -7.2752   -0.6636 C   0  0  3  0  0  0  0  0  0  0  0  0
    5.9626   -7.9362   -2.8309 C   0  0  0  0  0  0  0  0  0  0  0  0
    5.3699   -9.1450   -2.4818 N   0  0  0  0  0  0  0  0  0  0  0  0
    4.4225   -9.2904   -1.5019 C   0  0  0  0  0  0  0  0  0  0  0  0
    4.1531   -8.3790   -0.6248 N   0  0  0  0  0  0  0  0  0  0  0  0
    3.7450  -10.4629   -1.4775 N   0  0  0  0  0  0  0  0  0  0  0  0
    6.7483   -7.8585   -3.7640 O   0  0  0  0  0  0  0  0  0  0  0  0
    4.7273   -1.2585   -4.3656 H   0  0  0  0  0  0  0  0  0  0  0  0
    5.7995    0.8370   -3.4201 H   0  0  0  0  0  0  0  0  0  0  0  0
    4.1847    1.4546   -3.0576 H   0  0  0  0  0  0  0  0  0  0  0  0
    4.7626   -0.0420   -2.2975 H   0  0  0  0  0  0  0  0  0  0  0  0
    4.1889   -0.1610   -6.5705 H   0  0  0  0  0  0  0  0  0  0  0  0
    4.2355    1.4198   -5.7647 H   0  0  0  0  0  0  0  0  0  0  0  0
    5.6853    0.4160   -5.8289 H   0  0  0  0  0  0  0  0  0  0  0  0
    2.4233   -1.2223   -5.1497 H   0  0  0  0  0  0  0  0  0  0  0  0
    0.9556    0.4281   -4.7962 H   0  0  0  0  0  0  0  0  0  0  0  0
    1.7725    1.1313   -3.5934 H   0  0  0  0  0  0  0  0  0  0  0  0
    1.3326   -3.3963   -1.7674 H   0  0  0  0  0  0  0  0  0  0  0  0
    2.6470   -4.4129   -2.2894 H   0  0  0  0  0  0  0  0  0  0  0  0
    4.1992   -3.0367   -0.6938 H   0  0  0  0  0  0  0  0  0  0  0  0
    3.0155   -2.0039    1.2693 H   0  0  0  0  0  0  0  0  0  0  0  0
    2.8120   -1.1079   -0.2428 H   0  0  0  0  0  0  0  0  0  0  0  0
    0.7608   -1.5161   -0.2021 H   0  0  0  0  0  0  0  0  0  0  0  0
    2.9715   -6.3246    0.7984 H   0  0  0  0  0  0  0  0  0  0  0  0
    2.8688   -5.9354   -0.9012 H   0  0  0  0  0  0  0  0  0  0  0  0
    5.9675   -4.2197   -0.2314 H   0  0  0  0  0  0  0  0  0  0  0  0
    4.4208   -6.5320   -2.6094 H   0  0  0  0  0  0  0  0  0  0  0  0
    6.0450   -7.6389   -0.2041 H   0  0  0  0  0  0  0  0  0  0  0  0
    5.5647   -9.9043   -3.1185 H   0  0  0  0  0  0  0  0  0  0  0  0
    3.2575  -10.6128   -0.5969 H   0  0  0  0  0  0  0  0  0  0  0  0
    4.2168  -11.2935   -1.8103 H   0  0  0  0  0  0  0  0  0  0  0  0
  1  2  1  0  0  0  0
  1  3  1  0  0  0  0
  1  4  1  0  0  0  0
  1 26  1  0  0  0  0
  2 27  1  0  0  0  0
  2 28  1  0  0  0  0
  2 29  1  0  0  0  0
  3 30  1  0  0  0  0
  3 31  1  0  0  0  0
  3 32  1  0  0  0  0
  4  5  1  0  0  0  0
  4  6  1  0  0  0  0
  4 33  1  6  0  0  0
  5  7  1  0  0  0  0
  5  8  2  0  0  0  0
  6 34  1  0  0  0  0
  6 35  1  0  0  0  0
  7  9  1  0  0  0  0
  9 10  1  0  0  0  0
  9 36  1  0  0  0  0
  9 37  1  0  0  0  0
 10 11  1  0  0  0  0
 10 13  1  0  0  0  0
 10 38  1  0  0  0  0
 11 12  1  0  0  0  0
 11 39  1  0  0  0  0
 11 40  1  0  0  0  0
 12 41  1  0  0  0  0
 13 14  1  0  0  0  0
 14 15  1  0  0  0  0
 14 42  1  0  0  0  0
 14 43  1  0  0  0  0
 15 16  1  0  0  0  0
 16 17  2  0  0  0  0
 16 44  1  0  0  0  0
 17 18  1  0  0  0  0
 18 19  1  0  0  0  0
 18 20  1  0  0  0  0
 18 45  1  0  0  0  0
 19 15  1  0  0  0  0
 19 46  1  0  0  0  0
 20 21  1  0  0  0  0
 20 25  2  0  0  0  0
 21 22  1  0  0  0  0
 21 47  1  0  0  0  0
 22 23  2  0  0  0  0
 22 24  1  0  0  0  0
 23 19  1  0  0  0  0
 24 48  1  0  0  0  0
 24 49  1  0  0  0  0
M  END
>  <Mol_ID>
1240

>  <Formula>
C14H25ClN6O5

>  <MolWeight>
392.8385

>  <Cat>
S4050

>  <Name>
Valganciclovir HCl

>  <Synonyms>
N/A

>  <Target>
CMV

>  <Form>
Hydrochloride

>  <CAS>
175865-59-5

>  <URL>
http://selleckchem.com/products/valganciclovir-hcl.html

$$$$
