Vanillin.cdx
 OpenBabel08302522003D

 19 19  0  0  0  0  0  0  0  0999 V2000
    0.8528    0.0471    0.0506 C   0  0  0  0  0  0  0  0  0  0  0  0
    0.2255    1.0186    0.9692 C   0  0  0  0  0  0  0  0  0  0  0  0
    0.6989    2.3380    1.0129 C   0  0  0  0  0  0  0  0  0  0  0  0
    0.1091    3.2533    1.8818 C   0  0  0  0  0  0  0  0  0  0  0  0
   -0.9424    2.8242    2.7021 C   0  0  0  0  0  0  0  0  0  0  0  0
   -1.4178    1.5172    2.6616 C   0  0  0  0  0  0  0  0  0  0  0  0
   -0.8328    0.6049    1.7851 C   0  0  0  0  0  0  0  0  0  0  0  0
    1.7854    0.3548   -0.6804 O   0  0  0  0  0  0  0  0  0  0  0  0
    0.4560    4.5724    2.0235 O   0  0  0  0  0  0  0  0  0  0  0  0
    1.5146    5.0414    1.1935 C   0  0  0  0  0  0  0  0  0  0  0  0
   -1.5346    3.6963    3.5744 O   0  0  0  0  0  0  0  0  0  0  0  0
    0.4399   -0.9755    0.0550 H   0  0  0  0  0  0  0  0  0  0  0  0
    1.5220    2.6151    0.3615 H   0  0  0  0  0  0  0  0  0  0  0  0
   -2.2363    1.2175    3.3102 H   0  0  0  0  0  0  0  0  0  0  0  0
   -1.2064   -0.4149    1.7501 H   0  0  0  0  0  0  0  0  0  0  0  0
    2.4567    4.5437    1.4455 H   0  0  0  0  0  0  0  0  0  0  0  0
    1.2727    4.9200    0.1324 H   0  0  0  0  0  0  0  0  0  0  0  0
    1.6394    6.1116    1.3843 H   0  0  0  0  0  0  0  0  0  0  0  0
   -1.0604    4.5418    3.4500 H   0  0  0  0  0  0  0  0  0  0  0  0
  1  2  1  0  0  0  0
  1  8  2  0  0  0  0
  1 12  1  0  0  0  0
  2  3  2  0  0  0  0
  2  7  1  0  0  0  0
  3  4  1  0  0  0  0
  3 13  1  0  0  0  0
  4  5  2  0  0  0  0
  4  9  1  0  0  0  0
  5  6  1  0  0  0  0
  5 11  1  0  0  0  0
  6  7  2  0  0  0  0
  6 14  1  0  0  0  0
  7 15  1  0  0  0  0
  9 10  1  0  0  0  0
 10 16  1  0  0  0  0
 10 17  1  0  0  0  0
 10 18  1  0  0  0  0
 11 19  1  0  0  0  0
M  END
>  <Mol_ID>
1044

>  <Formula>
C8H8O3

>  <MolWeight>
152.14732

>  <Cat>
S3071

>  <Name>
Vanillin

>  <Synonyms>
FEMA 3107

>  <Target>
Others

>  <Form>
free base

>  <CAS>
121-33-5

>  <URL>
http://selleckchem.com/products/vanillin.html

$$$$
