Vanillylmandelic acid
 OpenBabel08302520403D

 24 24  0  0  0  0  0  0  0  0999 V2000
   -0.1603    1.6102   -1.9819 C   0  0  0  0  0  0  0  0  0  0  0  0
    0.1935    1.0757   -0.5785 C   0  0  3  0  0  0  0  0  0  0  0  0
    1.5683    1.2574   -0.2560 O   0  0  0  0  0  0  0  0  0  0  0  0
   -0.6251    1.7042    0.5310 C   0  0  0  0  0  0  0  0  0  0  0  0
   -0.5621    3.0951    0.7594 C   0  0  0  0  0  0  0  0  0  0  0  0
   -1.3187    3.6829    1.7709 C   0  0  0  0  0  0  0  0  0  0  0  0
   -2.1417    2.8676    2.5555 C   0  0  0  0  0  0  0  0  0  0  0  0
   -2.2340    1.4991    2.3359 C   0  0  0  0  0  0  0  0  0  0  0  0
   -1.4792    0.9168    1.3196 C   0  0  0  0  0  0  0  0  0  0  0  0
    0.6587    1.6710   -2.8883 O   0  0  0  0  0  0  0  0  0  0  0  0
   -1.4574    1.9646   -2.1654 O   0  0  0  0  0  0  0  0  0  0  0  0
   -1.3529    5.0159    2.0869 O   0  0  0  0  0  0  0  0  0  0  0  0
   -0.5283    5.8754    1.3072 C   0  0  0  0  0  0  0  0  0  0  0  0
   -2.8843    3.4112    3.5668 O   0  0  0  0  0  0  0  0  0  0  0  0
    0.0112   -0.0051   -0.6125 H   0  0  0  0  0  0  0  0  0  0  0  0
    2.0711    1.0871   -1.0754 H   0  0  0  0  0  0  0  0  0  0  0  0
    0.0889    3.6922    0.1249 H   0  0  0  0  0  0  0  0  0  0  0  0
   -2.8863    0.8944    2.9586 H   0  0  0  0  0  0  0  0  0  0  0  0
   -1.5611   -0.1565    1.1560 H   0  0  0  0  0  0  0  0  0  0  0  0
   -2.0165    1.9036   -1.3636 H   0  0  0  0  0  0  0  0  0  0  0  0
    0.5301    5.6250    1.4328 H   0  0  0  0  0  0  0  0  0  0  0  0
   -0.8203    5.8524    0.2521 H   0  0  0  0  0  0  0  0  0  0  0  0
   -0.6739    6.8974    1.6703 H   0  0  0  0  0  0  0  0  0  0  0  0
   -2.6616    4.3629    3.5609 H   0  0  0  0  0  0  0  0  0  0  0  0
  1  2  1  0  0  0  0
  1 10  2  0  0  0  0
  1 11  1  0  0  0  0
  2  3  1  0  0  0  0
  2  4  1  0  0  0  0
  2 15  1  0  0  0  0
  3 16  1  0  0  0  0
  4  5  2  0  0  0  0
  4  9  1  0  0  0  0
  5  6  1  0  0  0  0
  5 17  1  0  0  0  0
  6  7  2  0  0  0  0
  6 12  1  0  0  0  0
  7  8  1  0  0  0  0
  7 14  1  0  0  0  0
  8  9  2  0  0  0  0
  8 18  1  0  0  0  0
  9 19  1  0  0  0  0
 11 20  1  0  0  0  0
 12 13  1  0  0  0  0
 13 21  1  0  0  0  0
 13 22  1  0  0  0  0
 13 23  1  0  0  0  0
 14 24  1  0  0  0  0
M  END
>  <Mol_ID>
3859

>  <Formula>
C9H10O5

>  <MolWeight>
198.1727

>  <Cat>
S6613

>  <Name>
Vanillylmandelic acid

>  <Synonyms>
VMA

>  <Target>
Others

>  <Form>
free base

>  <CAS>
55-10-7

>  <URL>
http://www.selleck.cn/products/vanillylmandelic-acid.html

$$$$
