Varenicline tartrate.cdx
 OpenBabel08302520433D

 45 47  0  0  0  0  0  0  0  0999 V2000
   -2.7222    0.4603   -1.3970 C   0  0  0  0  0  0  0  0  0  0  0  0
   -2.1524    0.6212    0.7137 C   0  0  1  0  0  0  0  0  0  0  0  0
   -2.8065    1.5681   -2.3239 O   0  0  0  0  0  0  0  0  0  0  0  0
   -3.0237   -0.5251   -2.1280 O   0  0  0  0  0  0  0  0  0  0  0  0
   -1.3654   -0.5403    1.8158 C   0  0  2  0  0  0  0  0  0  0  0  0
   -1.8175   -1.9967    1.9808 C   0  0  0  0  0  0  0  0  0  0  0  0
   -0.8189   -2.8954    1.7725 O   0  0  0  0  0  0  0  0  0  0  0  0
   -1.5761    1.7922    1.5417 O   0  0  0  0  0  0  0  0  0  0  0  0
   -1.5974   -0.0918    3.2314 O   0  0  0  0  0  0  0  0  0  0  0  0
   -2.9198   -2.3375    2.3996 O   0  0  0  0  0  0  0  0  0  0  0  0
    2.2692   -0.3889    0.1385 C   0  0  3  0  0  0  0  0  0  0  0  0
    1.3120   -0.3107   -1.0013 C   0  0  0  0  0  0  0  0  0  0  0  0
    1.4806    1.0697   -1.3818 C   0  0  0  0  0  0  0  0  0  0  0  0
    2.7651    1.7043   -0.5526 C   0  0  3  0  0  0  0  0  0  0  0  0
    2.1306    1.1035    0.6735 C   0  0  0  0  0  0  0  0  0  0  0  0
    4.2851    1.2460   -0.0510 C   0  0  0  0  0  0  0  0  0  0  0  0
    3.4210   -0.9894    0.8645 C   0  0  0  0  0  0  0  0  0  0  0  0
    4.5910   -0.1362    0.5210 N   0  0  0  0  0  0  0  0  0  0  0  0
    0.3031    1.8458   -1.4147 C   0  0  0  0  0  0  0  0  0  0  0  0
   -0.9053    1.3378   -0.8987 C   0  0  0  0  0  0  0  0  0  0  0  0
   -0.9966   -0.4248   -0.7244 C   0  0  0  0  0  0  0  0  0  0  0  0
    0.1621   -1.0994   -0.9472 C   0  0  0  0  0  0  0  0  0  0  0  0
   -2.3452    2.2673   -0.4709 N   0  0  0  0  0  0  0  0  0  0  0  0
   -3.9057    1.5126   -0.0603 C   0  0  0  0  0  0  0  0  0  0  0  0
   -3.9883   -0.2152    0.0372 C   0  0  0  0  0  0  0  0  0  0  0  0
   -2.5331   -1.1435   -0.1887 N   0  0  0  0  0  0  0  0  0  0  0  0
   -3.0120    0.6025    1.4334 H   0  0  0  0  0  0  0  0  0  0  0  0
   -2.6273    2.4109   -1.8330 H   0  0  0  0  0  0  0  0  0  0  0  0
   -0.2853   -0.4326    1.7392 H   0  0  0  0  0  0  0  0  0  0  0  0
    0.0462   -2.4805    1.6088 H   0  0  0  0  0  0  0  0  0  0  0  0
   -1.3300    2.5088    0.9449 H   0  0  0  0  0  0  0  0  0  0  0  0
   -2.5523   -0.2174    3.3960 H   0  0  0  0  0  0  0  0  0  0  0  0
    2.9380   -0.5234   -0.7612 H   0  0  0  0  0  0  0  0  0  0  0  0
    2.7710    2.7837   -0.7325 H   0  0  0  0  0  0  0  0  0  0  0  0
    1.1141    1.4694    0.8607 H   0  0  0  0  0  0  0  0  0  0  0  0
    2.6359    1.3121    1.6188 H   0  0  0  0  0  0  0  0  0  0  0  0
    4.4637    1.9089    0.8181 H   0  0  0  0  0  0  0  0  0  0  0  0
    5.0747    1.5296   -0.7513 H   0  0  0  0  0  0  0  0  0  0  0  0
    3.5792   -2.0326    0.5689 H   0  0  0  0  0  0  0  0  0  0  0  0
    3.1963   -0.9783    1.9370 H   0  0  0  0  0  0  0  0  0  0  0  0
    5.1943   -0.0620    1.3420 H   0  0  0  0  0  0  0  0  0  0  0  0
    0.3732    2.9200   -1.5810 H   0  0  0  0  0  0  0  0  0  0  0  0
    0.2031   -2.1638   -0.7460 H   0  0  0  0  0  0  0  0  0  0  0  0
   -4.7036    2.2104    0.1345 H   0  0  0  0  0  0  0  0  0  0  0  0
   -4.8643   -0.8153    0.3116 H   0  0  0  0  0  0  0  0  0  0  0  0
  1  2  1  0  0  0  0
  1  3  1  0  0  0  0
  1  4  2  0  0  0  0
  2  8  1  0  0  0  0
  2 27  1  1  0  0  0
  3 28  1  0  0  0  0
  5  9  1  0  0  0  0
  5 29  1  6  0  0  0
  5  6  1  0  0  0  0
  5  2  1  0  0  0  0
  6  7  1  0  0  0  0
  6 10  2  0  0  0  0
  7 30  1  0  0  0  0
  8 31  1  0  0  0  0
  9 32  1  0  0  0  0
 11 12  1  0  0  0  0
 11 15  1  0  0  0  0
 11 17  1  0  0  0  0
 11 33  1  0  0  0  0
 12 13  2  0  0  0  0
 13 14  1  0  0  0  0
 13 19  1  0  0  0  0
 14 15  1  0  0  0  0
 14 16  1  0  0  0  0
 14 34  1  0  0  0  0
 15 35  1  0  0  0  0
 15 36  1  0  0  0  0
 16 18  1  0  0  0  0
 16 37  1  0  0  0  0
 16 38  1  0  0  0  0
 17 18  1  0  0  0  0
 17 39  1  0  0  0  0
 17 40  1  0  0  0  0
 18 41  1  0  0  0  0
 19 20  2  0  0  0  0
 19 42  1  0  0  0  0
 20 21  1  0  0  0  0
 20 23  1  0  0  0  0
 21 22  2  0  0  0  0
 22 12  1  0  0  0  0
 22 43  1  0  0  0  0
 23 24  2  0  0  0  0
 24 25  1  0  0  0  0
 24 44  1  0  0  0  0
 25 26  2  0  0  0  0
 25 45  1  0  0  0  0
 26 21  1  0  0  0  0
M  END
>  <Mol_ID>
4020

>  <Formula>
C17H19N3O6

>  <MolWeight>
361.34926

>  <Cat>
S1440

>  <Name>
Varenicline Tartrate (CP 526555-18)

>  <Synonyms>
Chantix, Champix,CP 526555-18

>  <Target>
AChR

>  <Form>
Tartrate

>  <CAS>
375815-87-5

>  <URL>
http://selleckchem.com/products/Varenicline-tartrate.html

$$$$
