Venadaparib(IDX-1197)
 OpenBabel08302521323D

 53 57  0  0  0  0  0  0  0  0999 V2000
   -2.3488   -7.0244    0.1428 C   0  0  0  0  0  0  0  0  0  0  0  0
   -1.7125   -8.0967    0.7646 C   0  0  0  0  0  0  0  0  0  0  0  0
   -0.5466   -7.8819    1.4982 C   0  0  0  0  0  0  0  0  0  0  0  0
    0.0136   -6.6001    1.5495 C   0  0  0  0  0  0  0  0  0  0  0  0
   -0.5597   -5.5480    0.8427 C   0  0  0  0  0  0  0  0  0  0  0  0
   -1.7836   -5.7468    0.1934 C   0  0  0  0  0  0  0  0  0  0  0  0
    1.1951   -6.3319    2.3844 C   0  0  0  0  0  0  0  0  0  0  0  0
    1.6587   -5.0386    2.3768 N   0  0  0  0  0  0  0  0  0  0  0  0
    1.2552   -4.0556    1.5256 N   0  0  0  0  0  0  0  0  0  0  0  0
    0.2202   -4.2857    0.7696 C   0  0  0  0  0  0  0  0  0  0  0  0
   -0.1264   -3.2416   -0.2872 C   0  0  0  0  0  0  0  0  0  0  0  0
    1.7026   -7.2115    3.0744 O   0  0  0  0  0  0  0  0  0  0  0  0
    0.5217   -3.5474   -1.6259 C   0  0  0  0  0  0  0  0  0  0  0  0
    1.7857   -3.0113   -1.9410 C   0  0  0  0  0  0  0  0  0  0  0  0
    2.4069   -3.3168   -3.1616 C   0  0  0  0  0  0  0  0  0  0  0  0
    1.7455   -4.1277   -4.0828 C   0  0  0  0  0  0  0  0  0  0  0  0
    0.5046   -4.6736   -3.7862 C   0  0  0  0  0  0  0  0  0  0  0  0
   -0.1032   -4.3866   -2.5610 C   0  0  0  0  0  0  0  0  0  0  0  0
    2.2793   -4.3965   -5.2870 F   0  0  0  0  0  0  0  0  0  0  0  0
    3.7384   -2.7427   -3.4484 C   0  0  0  0  0  0  0  0  0  0  0  0
    4.0030   -1.6061   -3.0723 O   0  0  0  0  0  0  0  0  0  0  0  0
    4.6388   -3.5418   -4.1242 N   0  0  0  0  0  0  0  0  0  0  0  0
    6.0369   -3.2516   -4.4025 C   0  0  0  0  0  0  0  0  0  0  0  0
    6.3548   -4.6835   -3.9438 C   0  0  0  0  0  0  0  0  0  0  0  0
    4.8472   -4.9785   -3.9885 C   0  0  0  0  0  0  0  0  0  0  0  0
    7.1743   -5.5663   -4.8749 C   0  0  0  0  0  0  0  0  0  0  0  0
    8.5203   -5.0203   -5.0678 N   0  0  0  0  0  0  0  0  0  0  0  0
    9.3196   -5.8508   -5.9777 C   0  0  0  0  0  0  0  0  0  0  0  0
   10.6990   -5.3919   -6.3548 C   0  0  0  0  0  0  0  0  0  0  0  0
    9.5981   -5.3689   -7.3750 C   0  0  0  0  0  0  0  0  0  0  0  0
   -3.2813   -7.1832   -0.3946 H   0  0  0  0  0  0  0  0  0  0  0  0
   -2.1361   -9.0957    0.6957 H   0  0  0  0  0  0  0  0  0  0  0  0
   -0.0742   -8.7095    2.0238 H   0  0  0  0  0  0  0  0  0  0  0  0
   -2.3156   -4.9338   -0.2898 H   0  0  0  0  0  0  0  0  0  0  0  0
    2.4755   -4.8352    2.9467 H   0  0  0  0  0  0  0  0  0  0  0  0
   -1.2079   -3.1345   -0.4102 H   0  0  0  0  0  0  0  0  0  0  0  0
    0.2166   -2.2614    0.0682 H   0  0  0  0  0  0  0  0  0  0  0  0
    2.2931   -2.3585   -1.2304 H   0  0  0  0  0  0  0  0  0  0  0  0
    0.0147   -5.3136   -4.5126 H   0  0  0  0  0  0  0  0  0  0  0  0
   -1.0771   -4.8230   -2.3593 H   0  0  0  0  0  0  0  0  0  0  0  0
    6.2095   -3.0357   -5.4612 H   0  0  0  0  0  0  0  0  0  0  0  0
    6.4725   -2.4623   -3.7840 H   0  0  0  0  0  0  0  0  0  0  0  0
    6.7464   -4.7050   -2.9159 H   0  0  0  0  0  0  0  0  0  0  0  0
    4.4388   -5.4107   -3.0705 H   0  0  0  0  0  0  0  0  0  0  0  0
    4.4872   -5.5355   -4.8586 H   0  0  0  0  0  0  0  0  0  0  0  0
    7.2499   -6.5665   -4.4311 H   0  0  0  0  0  0  0  0  0  0  0  0
    6.6757   -5.6726   -5.8462 H   0  0  0  0  0  0  0  0  0  0  0  0
    8.4530   -4.0702   -5.4329 H   0  0  0  0  0  0  0  0  0  0  0  0
    9.2159   -6.9251   -5.8334 H   0  0  0  0  0  0  0  0  0  0  0  0
   11.0558   -4.4475   -5.9609 H   0  0  0  0  0  0  0  0  0  0  0  0
   11.4685   -6.1491   -6.4509 H   0  0  0  0  0  0  0  0  0  0  0  0
    9.6230   -6.1082   -8.1673 H   0  0  0  0  0  0  0  0  0  0  0  0
    9.2266   -4.4009   -7.6885 H   0  0  0  0  0  0  0  0  0  0  0  0
  1  2  2  0  0  0  0
  1 31  1  0  0  0  0
  2  3  1  0  0  0  0
  2 32  1  0  0  0  0
  3  4  2  0  0  0  0
  3 33  1  0  0  0  0
  4  5  1  0  0  0  0
  4  7  1  0  0  0  0
  5  6  2  0  0  0  0
  6  1  1  0  0  0  0
  6 34  1  0  0  0  0
  7  8  1  0  0  0  0
  7 12  2  0  0  0  0
  8  9  1  0  0  0  0
  8 35  1  0  0  0  0
  9 10  2  0  0  0  0
 10  5  1  0  0  0  0
 10 11  1  0  0  0  0
 11 13  1  0  0  0  0
 11 36  1  0  0  0  0
 11 37  1  0  0  0  0
 13 14  2  0  0  0  0
 14 15  1  0  0  0  0
 14 38  1  0  0  0  0
 15 16  2  0  0  0  0
 15 20  1  0  0  0  0
 16 17  1  0  0  0  0
 16 19  1  0  0  0  0
 17 18  2  0  0  0  0
 17 39  1  0  0  0  0
 18 13  1  0  0  0  0
 18 40  1  0  0  0  0
 20 21  2  0  0  0  0
 20 22  1  0  0  0  0
 22 23  1  0  0  0  0
 23 24  1  0  0  0  0
 23 41  1  0  0  0  0
 23 42  1  0  0  0  0
 24 25  1  0  0  0  0
 24 26  1  0  0  0  0
 24 43  1  0  0  0  0
 25 22  1  0  0  0  0
 25 44  1  0  0  0  0
 25 45  1  0  0  0  0
 26 27  1  0  0  0  0
 26 46  1  0  0  0  0
 26 47  1  0  0  0  0
 27 28  1  0  0  0  0
 27 48  1  0  0  0  0
 28 29  1  0  0  0  0
 28 49  1  0  0  0  0
 29 30  1  0  0  0  0
 29 50  1  0  0  0  0
 29 51  1  0  0  0  0
 30 28  1  0  0  0  0
 30 52  1  0  0  0  0
 30 53  1  0  0  0  0
M  END
>  <Mol_ID>
6102

>  <Formula>
C23H23FN4O2

>  <MolWeight>
406.4527232

>  <Cat>
S9893

>  <Name>
Venadaparib(IDX-1197)

>  <Target>
PARP

>  <Form>
free base

>  <CAS>
1681017-83-3

>  <URL>
http://www.selleckchem.com/products/venadaparib-idx-1197.html

$$$$
