VIDAZA (azacitidine).cdx
 OpenBabel08302521213D

 29 30  0  0  0  0  0  0  0  0999 V2000
   -0.2278   -0.7951   -0.4674 C   0  0  2  0  0  0  0  0  0  0  0  0
    1.2945   -0.8084   -0.3988 C   0  0  2  0  0  0  0  0  0  0  0  0
    1.6794    0.4175    0.2679 O   0  0  0  0  0  0  0  0  0  0  0  0
    0.5397    1.3091    0.3478 C   0  0  2  0  0  0  0  0  0  0  0  0
   -0.5823    0.6861   -0.5028 C   0  0  2  0  0  0  0  0  0  0  0  0
   -0.7971   -1.3616    0.7301 O   0  0  0  0  0  0  0  0  0  0  0  0
   -1.8830    0.9055    0.0422 O   0  0  0  0  0  0  0  0  0  0  0  0
    1.9844   -0.8736   -1.7671 C   0  0  0  0  0  0  0  0  0  0  0  0
    0.9447    2.6484   -0.0501 N   0  0  0  0  0  0  0  0  0  0  0  0
    3.4034   -0.8829   -1.6178 O   0  0  0  0  0  0  0  0  0  0  0  0
    0.3049    3.7420    0.4738 C   0  0  0  0  0  0  0  0  0  0  0  0
    0.6823    4.9771    0.0160 N   0  0  0  0  0  0  0  0  0  0  0  0
    1.6087    5.0782   -0.8697 C   0  0  0  0  0  0  0  0  0  0  0  0
    2.2481    4.0180   -1.4119 N   0  0  0  0  0  0  0  0  0  0  0  0
    1.9013    2.8603   -0.9844 C   0  0  0  0  0  0  0  0  0  0  0  0
   -0.5691    3.6265    1.3231 O   0  0  0  0  0  0  0  0  0  0  0  0
    1.9713    6.2994   -1.3323 N   0  0  0  0  0  0  0  0  0  0  0  0
   -0.6454   -1.3558   -1.3101 H   0  0  0  0  0  0  0  0  0  0  0  0
    1.6593   -1.6316    0.2263 H   0  0  0  0  0  0  0  0  0  0  0  0
    0.2320    1.3351    1.3976 H   0  0  0  0  0  0  0  0  0  0  0  0
   -0.5796    1.0648   -1.5318 H   0  0  0  0  0  0  0  0  0  0  0  0
   -0.1999   -1.1846    1.4817 H   0  0  0  0  0  0  0  0  0  0  0  0
   -2.0923    0.1218    0.5945 H   0  0  0  0  0  0  0  0  0  0  0  0
    1.7103   -1.7913   -2.2973 H   0  0  0  0  0  0  0  0  0  0  0  0
    1.7264   -0.0185   -2.3975 H   0  0  0  0  0  0  0  0  0  0  0  0
    3.6663   -0.0592   -1.1681 H   0  0  0  0  0  0  0  0  0  0  0  0
    2.4023    1.9678   -1.3793 H   0  0  0  0  0  0  0  0  0  0  0  0
    2.3692    6.2740   -2.2610 H   0  0  0  0  0  0  0  0  0  0  0  0
    1.2535    6.9992   -1.1972 H   0  0  0  0  0  0  0  0  0  0  0  0
  1  2  1  0  0  0  0
  1  6  1  0  0  0  0
  1 18  1  6  0  0  0
  2  3  1  0  0  0  0
  2 19  1  1  0  0  0
  2  8  1  0  0  0  0
  3  4  1  0  0  0  0
  4  5  1  0  0  0  0
  4 20  1  1  0  0  0
  4  9  1  0  0  0  0
  5  1  1  0  0  0  0
  5  7  1  0  0  0  0
  5 21  1  6  0  0  0
  6 22  1  0  0  0  0
  7 23  1  0  0  0  0
  8 10  1  0  0  0  0
  8 24  1  0  0  0  0
  8 25  1  0  0  0  0
  9 11  1  0  0  0  0
 10 26  1  0  0  0  0
 11 12  1  0  0  0  0
 11 16  2  0  0  0  0
 12 13  2  0  0  0  0
 13 14  1  0  0  0  0
 13 17  1  0  0  0  0
 14 15  2  0  0  0  0
 15  9  1  0  0  0  0
 15 27  1  0  0  0  0
 17 28  1  0  0  0  0
 17 29  1  0  0  0  0
M  END
>  <Mol_ID>
438

>  <Formula>
C8H12N4O5

>  <MolWeight>
244.20468

>  <Cat>
S1782

>  <Name>
Azacitidine (5-Azacytidine)

>  <Synonyms>
5-AzaC,Ladakamycin, AZA,5-Aza, CC-486,NSC 102816,5-Azacytidine

>  <Target>
Autophagy,DNA Methyltransferase,Nucleoside Analog/Antimetabolite

>  <Form>
free base

>  <CAS>
320-67-2

>  <URL>
http://selleckchem.com/products/Azacitidine(Vidaza).html

$$$$
