Vimseltinib
 OpenBabel08302521353D

 57 60  0  0  0  0  0  0  0  0999 V2000
    2.6835   -1.3977    1.0163 O   0  0  0  0  0  0  0  0  0  0  0  0
    2.6818    1.2150    1.5577 C   0  0  0  0  0  0  0  0  0  0  0  0
   -1.2793   -5.2016   -2.3642 C   0  0  0  0  0  0  0  0  0  0  0  0
    0.5540    2.6949    0.2547 N   0  0  0  0  0  0  0  0  0  0  0  0
   -0.0610    3.5204   -0.7834 C   0  0  0  0  0  0  0  0  0  0  0  0
   -0.5356    4.8238   -0.1545 C   0  0  0  0  0  0  0  0  0  0  0  0
    0.9726    3.7893   -1.8760 C   0  0  0  0  0  0  0  0  0  0  0  0
    0.1524   -7.0238   -0.5469 O   0  0  0  0  0  0  0  0  0  0  0  0
    8.5673   -8.2474   -0.0240 C   0  0  0  0  0  0  0  0  0  0  0  0
    0.5356   -1.4519    0.0283 C   0  0  0  0  0  0  0  0  0  0  0  0
    1.6846   -0.7645    0.6625 C   0  0  0  0  0  0  0  0  0  0  0  0
   -0.3992   -0.6420   -0.4938 C   0  0  0  0  0  0  0  0  0  0  0  0
    1.5805    0.6118    0.8190 N   0  0  0  0  0  0  0  0  0  0  0  0
   -0.3772    0.7214   -0.4652 N   0  0  0  0  0  0  0  0  0  0  0  0
    0.5720    1.3244    0.1935 C   0  0  0  0  0  0  0  0  0  0  0  0
    0.4120   -2.9141   -0.0460 C   0  0  0  0  0  0  0  0  0  0  0  0
   -0.3173   -3.4200   -1.0706 N   0  0  0  0  0  0  0  0  0  0  0  0
    0.9829   -3.7433    0.9097 C   0  0  0  0  0  0  0  0  0  0  0  0
   -0.4342   -4.7716   -1.2040 C   0  0  0  0  0  0  0  0  0  0  0  0
    0.8556   -5.1170    0.7747 C   0  0  0  0  0  0  0  0  0  0  0  0
    0.2029   -5.6608   -0.3344 C   0  0  0  0  0  0  0  0  0  0  0  0
    1.2417   -7.7854   -0.1569 C   0  0  0  0  0  0  0  0  0  0  0  0
    2.5637   -7.3780   -0.3499 C   0  0  0  0  0  0  0  0  0  0  0  0
    0.9924   -9.0231    0.4217 C   0  0  0  0  0  0  0  0  0  0  0  0
    3.5965   -8.2002    0.0850 C   0  0  0  0  0  0  0  0  0  0  0  0
    2.0795   -9.7866    0.8185 C   0  0  0  0  0  0  0  0  0  0  0  0
    3.3681   -9.4012    0.6718 N   0  0  0  0  0  0  0  0  0  0  0  0
    4.9853   -7.8017   -0.0877 C   0  0  0  0  0  0  0  0  0  0  0  0
    6.0862   -8.5825    0.2083 C   0  0  0  0  0  0  0  0  0  0  0  0
    5.5530   -6.6051   -0.5901 C   0  0  0  0  0  0  0  0  0  0  0  0
    7.1849   -7.8512   -0.1340 N   0  0  0  0  0  0  0  0  0  0  0  0
    6.8879   -6.6344   -0.6236 N   0  0  0  0  0  0  0  0  0  0  0  0
    2.7875    0.6988    2.5187 H   0  0  0  0  0  0  0  0  0  0  0  0
    3.6064    1.0714    0.9887 H   0  0  0  0  0  0  0  0  0  0  0  0
    2.5524    2.2751    1.7603 H   0  0  0  0  0  0  0  0  0  0  0  0
   -2.1110   -4.4940   -2.4887 H   0  0  0  0  0  0  0  0  0  0  0  0
   -0.6926   -5.1907   -3.2884 H   0  0  0  0  0  0  0  0  0  0  0  0
   -1.7200   -6.1906   -2.2200 H   0  0  0  0  0  0  0  0  0  0  0  0
    1.2885    3.1717    0.7508 H   0  0  0  0  0  0  0  0  0  0  0  0
   -0.9296    3.0188   -1.2242 H   0  0  0  0  0  0  0  0  0  0  0  0
    0.2976    5.3813    0.2903 H   0  0  0  0  0  0  0  0  0  0  0  0
   -1.0134    5.4648   -0.9020 H   0  0  0  0  0  0  0  0  0  0  0  0
   -1.2628    4.6280    0.6413 H   0  0  0  0  0  0  0  0  0  0  0  0
    1.3266    2.8545   -2.3230 H   0  0  0  0  0  0  0  0  0  0  0  0
    0.5430    4.4046   -2.6735 H   0  0  0  0  0  0  0  0  0  0  0  0
    1.8471    4.3142   -1.4761 H   0  0  0  0  0  0  0  0  0  0  0  0
    9.0363   -8.1473   -1.0062 H   0  0  0  0  0  0  0  0  0  0  0  0
    9.0547   -7.5913    0.7014 H   0  0  0  0  0  0  0  0  0  0  0  0
    8.6235   -9.2858    0.3110 H   0  0  0  0  0  0  0  0  0  0  0  0
   -1.2751   -1.0665   -0.9782 H   0  0  0  0  0  0  0  0  0  0  0  0
    1.5359   -3.3488    1.7542 H   0  0  0  0  0  0  0  0  0  0  0  0
    1.3005   -5.7539    1.5350 H   0  0  0  0  0  0  0  0  0  0  0  0
    2.7786   -6.4240   -0.8167 H   0  0  0  0  0  0  0  0  0  0  0  0
   -0.0189   -9.3856    0.5717 H   0  0  0  0  0  0  0  0  0  0  0  0
    1.9417  -10.7600    1.2831 H   0  0  0  0  0  0  0  0  0  0  0  0
    6.1655   -9.5806    0.6163 H   0  0  0  0  0  0  0  0  0  0  0  0
    5.0531   -5.7114   -0.9401 H   0  0  0  0  0  0  0  0  0  0  0  0
  1 11  2  0  0  0  0
  2 13  1  0  0  0  0
  2 33  1  0  0  0  0
  2 34  1  0  0  0  0
  2 35  1  0  0  0  0
  3 19  1  0  0  0  0
  3 36  1  0  0  0  0
  3 37  1  0  0  0  0
  3 38  1  0  0  0  0
  4  5  1  0  0  0  0
  4 15  1  0  0  0  0
  4 39  1  0  0  0  0
  5  6  1  0  0  0  0
  5  7  1  0  0  0  0
  5 40  1  0  0  0  0
  6 41  1  0  0  0  0
  6 42  1  0  0  0  0
  6 43  1  0  0  0  0
  7 44  1  0  0  0  0
  7 45  1  0  0  0  0
  7 46  1  0  0  0  0
  8 21  1  0  0  0  0
  8 22  1  0  0  0  0
  9 31  1  0  0  0  0
  9 47  1  0  0  0  0
  9 48  1  0  0  0  0
  9 49  1  0  0  0  0
 10 11  1  0  0  0  0
 10 12  2  0  0  0  0
 10 16  1  0  0  0  0
 11 13  1  0  0  0  0
 12 14  1  0  0  0  0
 12 50  1  0  0  0  0
 13 15  1  0  0  0  0
 14 15  2  0  0  0  0
 16 17  2  0  0  0  0
 16 18  1  0  0  0  0
 17 19  1  0  0  0  0
 18 20  2  0  0  0  0
 18 51  1  0  0  0  0
 19 21  2  0  0  0  0
 20 21  1  0  0  0  0
 20 52  1  0  0  0  0
 22 23  2  0  0  0  0
 22 24  1  0  0  0  0
 23 25  1  0  0  0  0
 23 53  1  0  0  0  0
 24 26  2  0  0  0  0
 24 54  1  0  0  0  0
 25 27  2  0  0  0  0
 25 28  1  0  0  0  0
 26 27  1  0  0  0  0
 26 55  1  0  0  0  0
 28 29  2  0  0  0  0
 28 30  1  0  0  0  0
 29 31  1  0  0  0  0
 29 56  1  0  0  0  0
 30 32  2  0  0  0  0
 30 57  1  0  0  0  0
 31 32  1  0  0  0  0
M  END
>  <Mol_ID>
6857

>  <Formula>
C23H25N7O2

>  <MolWeight>
431.4903

>  <Cat>
E2629

>  <Name>
Vimseltinib

>  <Synonyms>
DCC-3014

>  <Target>
c-Kit,CSF-1R

>  <Form>
Free base

>  <CAS>
1628606-05-2

>  <URL>
http://www.selleckchem.com/products/vimseltinib.html

$$$$
