VLX600
 OpenBabel08302521233D

 39 42  0  0  0  0  0  0  0  0999 V2000
   -0.0560   -1.2253    1.0650 N   0  0  0  0  0  0  0  0  0  0  0  0
    2.3443   -0.9526    1.0014 N   0  0  0  0  0  0  0  0  0  0  0  0
    1.6500    1.6294    0.0139 N   0  0  0  0  0  0  0  0  0  0  0  0
    2.9141    1.1657    0.0235 N   0  0  0  0  0  0  0  0  0  0  0  0
    4.5994   -0.4188    0.3783 N   0  0  0  0  0  0  0  0  0  0  0  0
    5.1787   -1.4234    1.0826 N   0  0  0  0  0  0  0  0  0  0  0  0
    6.5367   -0.9199   -1.5097 N   0  0  0  0  0  0  0  0  0  0  0  0
    1.0848   -0.5045    0.8551 C   0  0  0  0  0  0  0  0  0  0  0  0
   -1.1585   -0.5213    0.6115 C   0  0  0  0  0  0  0  0  0  0  0  0
   -0.7149    0.7772    0.3285 C   0  0  0  0  0  0  0  0  0  0  0  0
    0.7041    0.7393    0.3910 C   0  0  0  0  0  0  0  0  0  0  0  0
   -2.4861   -0.9338    0.3983 C   0  0  0  0  0  0  0  0  0  0  0  0
   -1.6597    1.7533   -0.0500 C   0  0  0  0  0  0  0  0  0  0  0  0
   -3.4018    0.0703    0.0187 C   0  0  0  0  0  0  0  0  0  0  0  0
   -3.0029    1.3914   -0.1755 C   0  0  0  0  0  0  0  0  0  0  0  0
    3.2437   -0.0706    0.5039 C   0  0  0  0  0  0  0  0  0  0  0  0
   -2.9487   -2.3598    0.4690 C   0  0  0  0  0  0  0  0  0  0  0  0
    6.3977   -1.7616    0.7687 C   0  0  0  0  0  0  0  0  0  0  0  0
    7.2243   -1.2573   -0.3883 C   0  0  0  0  0  0  0  0  0  0  0  0
    7.0621   -2.7716    1.6851 C   0  0  0  0  0  0  0  0  0  0  0  0
    8.6130   -1.2164   -0.3136 C   0  0  0  0  0  0  0  0  0  0  0  0
    9.3359   -0.8639   -1.4547 C   0  0  0  0  0  0  0  0  0  0  0  0
    7.2672   -0.5991   -2.6035 C   0  0  0  0  0  0  0  0  0  0  0  0
    8.6518   -0.5651   -2.6267 C   0  0  0  0  0  0  0  0  0  0  0  0
   -0.0632   -2.1757    1.4007 H   0  0  0  0  0  0  0  0  0  0  0  0
    5.0196   -0.0424   -0.4692 H   0  0  0  0  0  0  0  0  0  0  0  0
   -1.3423    2.7701   -0.2666 H   0  0  0  0  0  0  0  0  0  0  0  0
   -4.4422   -0.1923   -0.1541 H   0  0  0  0  0  0  0  0  0  0  0  0
   -3.7354    2.1374   -0.4754 H   0  0  0  0  0  0  0  0  0  0  0  0
   -3.6471   -2.5010    1.2976 H   0  0  0  0  0  0  0  0  0  0  0  0
   -3.4478   -2.6305   -0.4693 H   0  0  0  0  0  0  0  0  0  0  0  0
   -2.1079   -3.0480    0.5944 H   0  0  0  0  0  0  0  0  0  0  0  0
    7.4692   -2.2430    2.5529 H   0  0  0  0  0  0  0  0  0  0  0  0
    6.3256   -3.5027    2.0290 H   0  0  0  0  0  0  0  0  0  0  0  0
    7.8670   -3.3175    1.1852 H   0  0  0  0  0  0  0  0  0  0  0  0
    9.1476   -1.4577    0.5995 H   0  0  0  0  0  0  0  0  0  0  0  0
   10.4213   -0.8398   -1.4324 H   0  0  0  0  0  0  0  0  0  0  0  0
    6.6931   -0.3740   -3.4991 H   0  0  0  0  0  0  0  0  0  0  0  0
    9.1876   -0.3131   -3.5360 H   0  0  0  0  0  0  0  0  0  0  0  0
  1  8  1  0  0  0  0
  1  9  1  0  0  0  0
  1 25  1  0  0  0  0
  2  8  2  0  0  0  0
  2 16  1  0  0  0  0
  3  4  1  0  0  0  0
  3 11  2  0  0  0  0
  4 16  2  0  0  0  0
  5  6  1  0  0  0  0
  5 16  1  0  0  0  0
  5 26  1  0  0  0  0
  6 18  2  0  0  0  0
  7 19  2  0  0  0  0
  7 23  1  0  0  0  0
  8 11  1  0  0  0  0
  9 10  2  0  0  0  0
  9 12  1  0  0  0  0
 10 11  1  0  0  0  0
 10 13  1  0  0  0  0
 12 14  2  0  0  0  0
 12 17  1  0  0  0  0
 13 15  2  0  0  0  0
 13 27  1  0  0  0  0
 14 15  1  0  0  0  0
 14 28  1  0  0  0  0
 15 29  1  0  0  0  0
 17 30  1  0  0  0  0
 17 31  1  0  0  0  0
 17 32  1  0  0  0  0
 18 19  1  0  0  0  0
 18 20  1  0  0  0  0
 19 21  1  0  0  0  0
 20 33  1  0  0  0  0
 20 34  1  0  0  0  0
 20 35  1  0  0  0  0
 21 22  2  0  0  0  0
 21 36  1  0  0  0  0
 22 24  1  0  0  0  0
 22 37  1  0  0  0  0
 23 24  2  0  0  0  0
 23 38  1  0  0  0  0
 24 39  1  0  0  0  0
M  END
>  <Mol_ID>
4902

>  <Formula>
C17H15N7

>  <MolWeight>
317.3479

>  <Cat>
S8943

>  <Name>
VLX600

>  <Synonyms>
N/A

>  <Target>
Autophagy,Mitochondrial Metabolism,OXPHOS

>  <Form>
Free Base

>  <CAS>
327031-55-0

>  <URL>
http://www.selleckchem.com/products/vlx600.html

$$$$
