Vonafexor (EYP001)
 OpenBabel08302521313D

 45 48  0  0  0  0  0  0  0  0999 V2000
    0.1092   -0.4364    1.1940 C   0  0  0  0  0  0  0  0  0  0  0  0
   -0.4874    0.1817    0.1070 C   0  0  0  0  0  0  0  0  0  0  0  0
    0.1877    0.5564   -1.0454 C   0  0  0  0  0  0  0  0  0  0  0  0
    1.5495    0.2366   -1.0835 C   0  0  0  0  0  0  0  0  0  0  0  0
    2.2148   -0.4191   -0.0312 C   0  0  0  0  0  0  0  0  0  0  0  0
    1.4914   -0.7255    1.1369 C   0  0  0  0  0  0  0  0  0  0  0  0
   -0.9387   -0.6391    2.1346 C   0  0  0  0  0  0  0  0  0  0  0  0
   -2.1016   -0.1592    1.5560 C   0  0  0  0  0  0  0  0  0  0  0  0
   -1.8148    0.3577    0.3215 O   0  0  0  0  0  0  0  0  0  0  0  0
   -3.4574   -0.1475    2.0359 C   0  0  0  0  0  0  0  0  0  0  0  0
    3.5627   -0.7444   -0.2260 N   0  0  0  0  0  0  0  0  0  0  0  0
    4.4636   -0.8799    0.9364 C   0  0  0  0  0  0  0  0  0  0  0  0
    5.9344   -0.8561    0.4446 C   0  0  0  0  0  0  0  0  0  0  0  0
    6.1915   -1.9156   -0.5840 N   0  0  0  0  0  0  0  0  0  0  0  0
    5.2306   -1.8105   -1.7219 C   0  0  0  0  0  0  0  0  0  0  0  0
    3.7657   -1.8048   -1.2482 C   0  0  0  0  0  0  0  0  0  0  0  0
    6.6010   -3.4658   -0.0325 S   0  0  0  0  0  0  0  0  0  0  0  0
    8.3875   -3.3895   -0.0272 C   0  0  0  0  0  0  0  0  0  0  0  0
    6.1599   -3.5938    1.3426 O   0  0  0  0  0  0  0  0  0  0  0  0
    6.2187   -4.4346   -1.0368 O   0  0  0  0  0  0  0  0  0  0  0  0
   -3.8686   -0.5758    3.1043 O   0  0  0  0  0  0  0  0  0  0  0  0
   -4.3156    0.4024    1.1475 O   0  0  0  0  0  0  0  0  0  0  0  0
    9.0667   -2.9536    1.1148 C   0  0  0  0  0  0  0  0  0  0  0  0
   10.4582   -2.8302    1.0852 C   0  0  0  0  0  0  0  0  0  0  0  0
   11.1705   -3.1826   -0.0629 C   0  0  0  0  0  0  0  0  0  0  0  0
   10.4973   -3.6950   -1.1725 C   0  0  0  0  0  0  0  0  0  0  0  0
    9.1038   -3.8007   -1.1584 C   0  0  0  0  0  0  0  0  0  0  0  0
   -0.3165    1.0527   -1.8634 H   0  0  0  0  0  0  0  0  0  0  0  0
    2.1142    0.5236   -1.9690 H   0  0  0  0  0  0  0  0  0  0  0  0
    1.9611   -1.2257    1.9773 H   0  0  0  0  0  0  0  0  0  0  0  0
   -0.8708   -1.1024    3.1089 H   0  0  0  0  0  0  0  0  0  0  0  0
    4.3192   -0.0358    1.6219 H   0  0  0  0  0  0  0  0  0  0  0  0
    4.2515   -1.8052    1.4836 H   0  0  0  0  0  0  0  0  0  0  0  0
    6.1371    0.1136   -0.0295 H   0  0  0  0  0  0  0  0  0  0  0  0
    6.6317   -0.9433    1.2826 H   0  0  0  0  0  0  0  0  0  0  0  0
    5.4431   -0.8668   -2.2412 H   0  0  0  0  0  0  0  0  0  0  0  0
    5.3958   -2.6007   -2.4599 H   0  0  0  0  0  0  0  0  0  0  0  0
    3.4889   -2.7818   -0.8325 H   0  0  0  0  0  0  0  0  0  0  0  0
    3.1365   -1.6315   -2.1298 H   0  0  0  0  0  0  0  0  0  0  0  0
   -5.1825    0.3417    1.5942 H   0  0  0  0  0  0  0  0  0  0  0  0
    8.5251   -2.7048    2.0234 H   0  0  0  0  0  0  0  0  0  0  0  0
   10.9917   -2.4572    1.9566 H   0  0  0  0  0  0  0  0  0  0  0  0
   12.2522   -3.0682   -0.0887 H   0  0  0  0  0  0  0  0  0  0  0  0
   11.0603   -4.0065   -2.0498 H   0  0  0  0  0  0  0  0  0  0  0  0
    8.5892   -4.1998   -2.0294 H   0  0  0  0  0  0  0  0  0  0  0  0
  1  2  1  0  0  0  0
  1  7  1  0  0  0  0
  2  3  2  0  0  0  0
  3  4  1  0  0  0  0
  3 28  1  0  0  0  0
  4  5  2  0  0  0  0
  4 29  1  0  0  0  0
  5  6  1  0  0  0  0
  5 11  1  0  0  0  0
  6  1  2  0  0  0  0
  6 30  1  0  0  0  0
  7  8  2  0  0  0  0
  7 31  1  0  0  0  0
  8  9  1  0  0  0  0
  8 10  1  0  0  0  0
  9  2  1  0  0  0  0
 10 21  2  0  0  0  0
 10 22  1  0  0  0  0
 11 12  1  0  0  0  0
 12 13  1  0  0  0  0
 12 32  1  0  0  0  0
 12 33  1  0  0  0  0
 13 14  1  0  0  0  0
 13 34  1  0  0  0  0
 13 35  1  0  0  0  0
 14 15  1  0  0  0  0
 14 17  1  0  0  0  0
 15 16  1  0  0  0  0
 15 36  1  0  0  0  0
 15 37  1  0  0  0  0
 16 11  1  0  0  0  0
 16 38  1  0  0  0  0
 16 39  1  0  0  0  0
 17 18  1  0  0  0  0
 17 19  2  0  0  0  0
 17 20  2  0  0  0  0
 18 23  2  0  0  0  0
 22 40  1  0  0  0  0
 23 24  1  0  0  0  0
 23 41  1  0  0  0  0
 24 25  2  0  0  0  0
 24 42  1  0  0  0  0
 25 26  1  0  0  0  0
 25 43  1  0  0  0  0
 26 27  2  0  0  0  0
 26 44  1  0  0  0  0
 27 18  1  0  0  0  0
 27 45  1  0  0  0  0
M  END
>  <Mol_ID>
5996

>  <Formula>
C19H15Cl3N2O5S

>  <MolWeight>
489.7568

>  <Cat>
S0874

>  <Name>
Vonafexor (EYP001)

>  <Synonyms>
PLX007

>  <Target>
FXR

>  <Form>
Free Base

>  <CAS>
1192171-69-9

>  <URL>
http://www.selleckchem.com/products/vonafexor.html

$$$$
