Voreloxin  SNS-595.cdx
 OpenBabel08302521403D

 47 50  0  0  0  0  0  0  0  0999 V2000
   -0.0422   -0.7211    0.0476 C   0  0  0  0  0  0  0  0  0  0  0  0
   -0.0566    0.6691    0.0268 C   0  0  0  0  0  0  0  0  0  0  0  0
   -1.2756    1.3404   -0.0385 C   0  0  0  0  0  0  0  0  0  0  0  0
   -2.4527    0.6029   -0.0992 C   0  0  0  0  0  0  0  0  0  0  0  0
   -2.4081   -0.7817   -0.0204 C   0  0  0  0  0  0  0  0  0  0  0  0
   -1.2144   -1.4025    0.0890 N   0  0  0  0  0  0  0  0  0  0  0  0
    1.2151   -1.4155    0.0224 N   0  0  0  0  0  0  0  0  0  0  0  0
    2.3801   -0.6406    0.0303 C   0  0  0  0  0  0  0  0  0  0  0  0
    2.4740    0.7008    0.0312 C   0  0  0  0  0  0  0  0  0  0  0  0
    1.1953    1.4483    0.0655 C   0  0  0  0  0  0  0  0  0  0  0  0
    3.7734    1.3986   -0.0293 C   0  0  0  0  0  0  0  0  0  0  0  0
    1.1402    2.6703    0.1247 O   0  0  0  0  0  0  0  0  0  0  0  0
    1.2884   -2.8007   -0.0159 C   0  0  0  0  0  0  0  0  0  0  0  0
    0.1091   -3.8357   -0.7914 S   0  0  0  0  0  0  0  0  0  0  0  0
    0.9529   -5.2268   -0.2970 C   0  0  0  0  0  0  0  0  0  0  0  0
    2.1212   -4.8537    0.3200 C   0  0  0  0  0  0  0  0  0  0  0  0
    2.3219   -3.4924    0.4467 N   0  0  0  0  0  0  0  0  0  0  0  0
   -3.5222   -1.5742   -0.0697 N   0  0  0  0  0  0  0  0  0  0  0  0
   -4.8875   -1.1142   -0.2937 C   0  0  0  0  0  0  0  0  0  0  0  0
   -5.7435   -1.8870    0.7373 C   0  0  1  0  0  0  0  0  0  0  0  0
   -4.9747   -3.2229    0.8826 C   0  0  2  0  0  0  0  0  0  0  0  0
   -3.4965   -2.8526    0.6552 C   0  0  0  0  0  0  0  0  0  0  0  0
    3.9694    2.5978   -0.0136 O   0  0  0  0  0  0  0  0  0  0  0  0
    4.8265    0.5616   -0.1401 O   0  0  0  0  0  0  0  0  0  0  0  0
   -5.4871   -4.2958    0.0819 O   0  0  0  0  0  0  0  0  0  0  0  0
   -5.8140   -1.0650    1.9685 N   0  0  0  0  0  0  0  0  0  0  0  0
   -5.4793   -4.1255   -1.3244 C   0  0  0  0  0  0  0  0  0  0  0  0
   -6.6436   -1.6654    2.9997 C   0  0  0  0  0  0  0  0  0  0  0  0
   -1.3182    2.4268   -0.0592 H   0  0  0  0  0  0  0  0  0  0  0  0
   -3.3854    1.1437   -0.1768 H   0  0  0  0  0  0  0  0  0  0  0  0
    3.2822   -1.2509   -0.0008 H   0  0  0  0  0  0  0  0  0  0  0  0
    0.5758   -6.2189   -0.4987 H   0  0  0  0  0  0  0  0  0  0  0  0
    2.8678   -5.5392    0.7004 H   0  0  0  0  0  0  0  0  0  0  0  0
   -5.1779   -1.3623   -1.3200 H   0  0  0  0  0  0  0  0  0  0  0  0
   -5.0353   -0.0377   -0.1880 H   0  0  0  0  0  0  0  0  0  0  0  0
   -6.7546   -2.0252    0.3389 H   0  0  0  0  0  0  0  0  0  0  0  0
   -5.0655   -3.6152    1.8996 H   0  0  0  0  0  0  0  0  0  0  0  0
   -3.0197   -2.7100    1.6350 H   0  0  0  0  0  0  0  0  0  0  0  0
   -2.9581   -3.6310    0.1069 H   0  0  0  0  0  0  0  0  0  0  0  0
    5.5893    1.1766   -0.1897 H   0  0  0  0  0  0  0  0  0  0  0  0
   -4.8700   -0.8986    2.3231 H   0  0  0  0  0  0  0  0  0  0  0  0
   -6.1262   -3.2988   -1.6248 H   0  0  0  0  0  0  0  0  0  0  0  0
   -4.4646   -3.9887   -1.7046 H   0  0  0  0  0  0  0  0  0  0  0  0
   -5.8927   -5.0339   -1.7723 H   0  0  0  0  0  0  0  0  0  0  0  0
   -6.1956   -2.5732    3.4120 H   0  0  0  0  0  0  0  0  0  0  0  0
   -6.7602   -0.9555    3.8235 H   0  0  0  0  0  0  0  0  0  0  0  0
   -7.6429   -1.8979    2.6197 H   0  0  0  0  0  0  0  0  0  0  0  0
  1  2  1  0  0  0  0
  1  7  1  0  0  0  0
  2  3  2  0  0  0  0
  3  4  1  0  0  0  0
  3 29  1  0  0  0  0
  4  5  2  0  0  0  0
  4 30  1  0  0  0  0
  5  6  1  0  0  0  0
  5 18  1  0  0  0  0
  6  1  2  0  0  0  0
  7  8  1  0  0  0  0
  7 13  1  0  0  0  0
  8  9  2  0  0  0  0
  8 31  1  0  0  0  0
  9 10  1  0  0  0  0
  9 11  1  0  0  0  0
 10  2  1  0  0  0  0
 10 12  2  0  0  0  0
 11 23  2  0  0  0  0
 11 24  1  0  0  0  0
 13 14  1  0  0  0  0
 14 15  1  0  0  0  0
 15 16  2  0  0  0  0
 15 32  1  0  0  0  0
 16 17  1  0  0  0  0
 16 33  1  0  0  0  0
 17 13  2  0  0  0  0
 18 19  1  0  0  0  0
 19 20  1  0  0  0  0
 19 34  1  0  0  0  0
 19 35  1  0  0  0  0
 20 21  1  0  0  0  0
 20 26  1  0  0  0  0
 20 36  1  6  0  0  0
 21 22  1  0  0  0  0
 21 37  1  1  0  0  0
 21 25  1  0  0  0  0
 22 18  1  0  0  0  0
 22 38  1  0  0  0  0
 22 39  1  0  0  0  0
 24 40  1  0  0  0  0
 25 27  1  0  0  0  0
 26 28  1  0  0  0  0
 26 41  1  0  0  0  0
 27 42  1  0  0  0  0
 27 43  1  0  0  0  0
 27 44  1  0  0  0  0
 28 45  1  0  0  0  0
 28 46  1  0  0  0  0
 28 47  1  0  0  0  0
M  END
>  <Mol_ID>
8244

>  <Formula>
C18H20ClN5O4S

>  <MolWeight>
437.9005

>  <Cat>
S7518

>  <Name>
Voreloxin (SNS-595) hydrochloride

>  <Synonyms>
Vosaroxin

>  <Target>
Topoisomerase

>  <Form>
hydrochloride

>  <CAS>
175519-16-1

>  <URL>
http://selleckchem.com/products/voreloxin-sns-595.html

$$$$
