Vorolanib
 OpenBabel08302521243D

 58 61  0  0  0  0  0  0  0  0999 V2000
    1.0456   -0.3024   -0.0654 F   0  0  0  0  0  0  0  0  0  0  0  0
    5.7364   14.6467   -2.4624 O   0  0  0  0  0  0  0  0  0  0  0  0
    7.4401    9.0701    0.1245 O   0  0  0  0  0  0  0  0  0  0  0  0
    7.7201    2.2989   -0.1313 O   0  0  0  0  0  0  0  0  0  0  0  0
    5.8839   12.4654   -1.9614 N   0  0  0  0  0  0  0  0  0  0  0  0
    5.3490    9.0205   -0.8163 N   0  0  0  0  0  0  0  0  0  0  0  0
    6.4958   13.3124   -4.1255 N   0  0  0  0  0  0  0  0  0  0  0  0
    6.9624    4.8142   -0.1291 N   0  0  0  0  0  0  0  0  0  0  0  0
    6.4577    0.3510   -0.1219 N   0  0  0  0  0  0  0  0  0  0  0  0
    5.1461   10.4241   -1.0890 C   0  0  1  0  0  0  0  0  0  0  0  0
    5.2023   11.3952    0.0801 C   0  0  0  0  0  0  0  0  0  0  0  0
    6.1020   11.0381   -2.1022 C   0  0  0  0  0  0  0  0  0  0  0  0
    5.3459   12.7449   -0.6267 C   0  0  0  0  0  0  0  0  0  0  0  0
    6.0418   13.5064   -2.8358 C   0  0  0  0  0  0  0  0  0  0  0  0
    6.4587    8.4429   -0.2431 C   0  0  0  0  0  0  0  0  0  0  0  0
    6.3672    6.9687   -0.1810 C   0  0  0  0  0  0  0  0  0  0  0  0
    5.1799    6.1339   -0.1070 C   0  0  0  0  0  0  0  0  0  0  0  0
    7.4495    6.0961   -0.1621 C   0  0  0  0  0  0  0  0  0  0  0  0
    5.5958    4.8048   -0.1139 C   0  0  0  0  0  0  0  0  0  0  0  0
    3.7622    6.6022   -0.0060 C   0  0  0  0  0  0  0  0  0  0  0  0
    4.8448    3.5968   -0.0910 C   0  0  0  0  0  0  0  0  0  0  0  0
    6.9438   12.0980   -4.7854 C   0  0  0  0  0  0  0  0  0  0  0  0
    6.4708   14.4921   -4.9800 C   0  0  0  0  0  0  0  0  0  0  0  0
    8.9210    6.3238   -0.1848 C   0  0  0  0  0  0  0  0  0  0  0  0
    5.2637    2.3214   -0.0954 C   0  0  0  0  0  0  0  0  0  0  0  0
    4.3244    1.1844   -0.0869 C   0  0  0  0  0  0  0  0  0  0  0  0
    5.1082    0.0249   -0.1066 C   0  0  0  0  0  0  0  0  0  0  0  0
    6.6493    1.7223   -0.1172 C   0  0  0  0  0  0  0  0  0  0  0  0
    2.9418    1.0911   -0.0706 C   0  0  0  0  0  0  0  0  0  0  0  0
    4.5625   -1.2440   -0.1110 C   0  0  0  0  0  0  0  0  0  0  0  0
    2.3798   -0.1804   -0.0763 C   0  0  0  0  0  0  0  0  0  0  0  0
    3.1696   -1.3393   -0.0975 C   0  0  0  0  0  0  0  0  0  0  0  0
    4.8020    8.3952   -1.3861 H   0  0  0  0  0  0  0  0  0  0  0  0
    7.5552    3.9870   -0.1173 H   0  0  0  0  0  0  0  0  0  0  0  0
    7.2250   -0.3044   -0.1371 H   0  0  0  0  0  0  0  0  0  0  0  0
    4.1320   10.4793   -1.5098 H   0  0  0  0  0  0  0  0  0  0  0  0
    4.2985   11.3529    0.6978 H   0  0  0  0  0  0  0  0  0  0  0  0
    6.0600   11.2115    0.7344 H   0  0  0  0  0  0  0  0  0  0  0  0
    7.1527   10.8355   -1.8655 H   0  0  0  0  0  0  0  0  0  0  0  0
    5.8523   10.6648   -3.0934 H   0  0  0  0  0  0  0  0  0  0  0  0
    4.3728   13.2384   -0.7373 H   0  0  0  0  0  0  0  0  0  0  0  0
    6.0180   13.4181   -0.0841 H   0  0  0  0  0  0  0  0  0  0  0  0
    3.6565    7.3216    0.8119 H   0  0  0  0  0  0  0  0  0  0  0  0
    3.4315    7.0664   -0.9391 H   0  0  0  0  0  0  0  0  0  0  0  0
    3.0653    5.7843    0.1909 H   0  0  0  0  0  0  0  0  0  0  0  0
    3.7688    3.7498   -0.0766 H   0  0  0  0  0  0  0  0  0  0  0  0
    6.0825   11.6416   -5.2849 H   0  0  0  0  0  0  0  0  0  0  0  0
    7.6994   12.3432   -5.5385 H   0  0  0  0  0  0  0  0  0  0  0  0
    7.4176   11.3979   -4.1031 H   0  0  0  0  0  0  0  0  0  0  0  0
    5.4865   14.9687   -4.9323 H   0  0  0  0  0  0  0  0  0  0  0  0
    7.2308   15.1959   -4.6267 H   0  0  0  0  0  0  0  0  0  0  0  0
    6.6791   14.2312   -6.0220 H   0  0  0  0  0  0  0  0  0  0  0  0
    9.2145    6.8569   -1.0938 H   0  0  0  0  0  0  0  0  0  0  0  0
    9.2401    6.9023    0.6876 H   0  0  0  0  0  0  0  0  0  0  0  0
    9.4702    5.3745   -0.1680 H   0  0  0  0  0  0  0  0  0  0  0  0
    2.2981    1.9641   -0.0557 H   0  0  0  0  0  0  0  0  0  0  0  0
    5.1809   -2.1342   -0.1245 H   0  0  0  0  0  0  0  0  0  0  0  0
    2.6830   -2.3105   -0.1001 H   0  0  0  0  0  0  0  0  0  0  0  0
  1 31  1  0  0  0  0
  2 14  2  0  0  0  0
  3 15  2  0  0  0  0
  4 28  2  0  0  0  0
  5 12  1  0  0  0  0
  5 13  1  0  0  0  0
  5 14  1  0  0  0  0
  6 15  1  0  0  0  0
  6 33  1  0  0  0  0
  7 14  1  0  0  0  0
  7 22  1  0  0  0  0
  7 23  1  0  0  0  0
  8 18  1  0  0  0  0
  8 19  1  0  0  0  0
  8 34  1  0  0  0  0
  9 27  1  0  0  0  0
  9 28  1  0  0  0  0
  9 35  1  0  0  0  0
 10  6  1  0  0  0  0
 10 11  1  0  0  0  0
 10 12  1  0  0  0  0
 10 36  1  6  0  0  0
 11 13  1  0  0  0  0
 11 37  1  0  0  0  0
 11 38  1  0  0  0  0
 12 39  1  0  0  0  0
 12 40  1  0  0  0  0
 13 41  1  0  0  0  0
 13 42  1  0  0  0  0
 15 16  1  0  0  0  0
 16 17  1  0  0  0  0
 16 18  2  0  0  0  0
 17 19  2  0  0  0  0
 17 20  1  0  0  0  0
 18 24  1  0  0  0  0
 19 21  1  0  0  0  0
 20 43  1  0  0  0  0
 20 44  1  0  0  0  0
 20 45  1  0  0  0  0
 21 25  2  0  0  0  0
 21 46  1  0  0  0  0
 22 47  1  0  0  0  0
 22 48  1  0  0  0  0
 22 49  1  0  0  0  0
 23 50  1  0  0  0  0
 23 51  1  0  0  0  0
 23 52  1  0  0  0  0
 24 53  1  0  0  0  0
 24 54  1  0  0  0  0
 24 55  1  0  0  0  0
 25 26  1  0  0  0  0
 25 28  1  0  0  0  0
 26 27  2  0  0  0  0
 26 29  1  0  0  0  0
 27 30  1  0  0  0  0
 29 31  2  0  0  0  0
 29 56  1  0  0  0  0
 30 32  2  0  0  0  0
 30 57  1  0  0  0  0
 31 32  1  0  0  0  0
 32 58  1  0  0  0  0
M  END
>  <Mol_ID>
5014

>  <Formula>
C23H26FN5O3

>  <MolWeight>
439.4826432

>  <Cat>
S6843

>  <Name>
Vorolanib

>  <Synonyms>
X-82,CM082

>  <Target>
PDGFR,VEGFR

>  <Form>
Free Base

>  <CAS>
1013920-15-4

>  <URL>
http://www.selleckchem.com/products/vorolanib.html

$$$$
