VPC-80051
 OpenBabel08302521353D

 35 37  0  0  0  0  0  0  0  0999 V2000
   -2.9865   -5.8138    1.8088 F   0  0  0  0  0  0  0  0  0  0  0  0
   -4.0370   -6.8582   -0.4961 F   0  0  0  0  0  0  0  0  0  0  0  0
   -6.0564   -0.6066   -0.2320 O   0  0  0  0  0  0  0  0  0  0  0  0
   -4.1535   -0.8065    1.0417 N   0  0  0  0  0  0  0  0  0  0  0  0
   -6.5163   -0.1572    4.2284 N   0  0  0  0  0  0  0  0  0  0  0  0
   -5.5887   -0.5243    3.3254 N   0  0  0  0  0  0  0  0  0  0  0  0
   -3.2864   -1.2739   -0.0209 C   0  0  2  0  0  0  0  0  0  0  0  0
   -3.4101   -2.7808   -0.1599 C   0  0  0  0  0  0  0  0  0  0  0  0
   -7.5652    0.0647    2.3172 C   0  0  0  0  0  0  0  0  0  0  0  0
   -1.8392   -0.8475    0.2256 C   0  0  0  0  0  0  0  0  0  0  0  0
   -6.2192   -0.3753    2.1362 C   0  0  0  0  0  0  0  0  0  0  0  0
   -5.5095   -0.6055    0.8648 C   0  0  0  0  0  0  0  0  0  0  0  0
   -7.6987    0.2637    3.6869 C   0  0  0  0  0  0  0  0  0  0  0  0
   -3.0794   -3.6416    0.9007 C   0  0  0  0  0  0  0  0  0  0  0  0
   -3.9208   -3.3330   -1.3483 C   0  0  0  0  0  0  0  0  0  0  0  0
   -8.6600    0.3631    1.4825 C   0  0  0  0  0  0  0  0  0  0  0  0
   -8.8486    0.8003    4.2760 C   0  0  0  0  0  0  0  0  0  0  0  0
   -3.2901   -5.0118    0.7789 C   0  0  0  0  0  0  0  0  0  0  0  0
   -4.1222   -4.7103   -1.4634 C   0  0  0  0  0  0  0  0  0  0  0  0
   -9.8220    0.9021    2.0503 C   0  0  0  0  0  0  0  0  0  0  0  0
   -9.9049    1.1340    3.4229 C   0  0  0  0  0  0  0  0  0  0  0  0
   -3.8135   -5.5413   -0.3928 C   0  0  0  0  0  0  0  0  0  0  0  0
   -3.8785   -0.9188    2.0120 H   0  0  0  0  0  0  0  0  0  0  0  0
   -6.2728   -0.1935    5.2118 H   0  0  0  0  0  0  0  0  0  0  0  0
   -3.6194   -0.7991   -0.9522 H   0  0  0  0  0  0  0  0  0  0  0  0
   -1.1589   -1.3101   -0.4986 H   0  0  0  0  0  0  0  0  0  0  0  0
   -1.7393    0.2399    0.1342 H   0  0  0  0  0  0  0  0  0  0  0  0
   -1.4968   -1.1191    1.2306 H   0  0  0  0  0  0  0  0  0  0  0  0
   -2.6828   -3.2548    1.8347 H   0  0  0  0  0  0  0  0  0  0  0  0
   -4.1896   -2.6876   -2.1838 H   0  0  0  0  0  0  0  0  0  0  0  0
   -8.6001    0.1956    0.4099 H   0  0  0  0  0  0  0  0  0  0  0  0
   -8.9180    0.9760    5.3447 H   0  0  0  0  0  0  0  0  0  0  0  0
   -4.5330   -5.1354   -2.3735 H   0  0  0  0  0  0  0  0  0  0  0  0
  -10.6626    1.1556    1.4082 H   0  0  0  0  0  0  0  0  0  0  0  0
  -10.8060    1.5827    3.8363 H   0  0  0  0  0  0  0  0  0  0  0  0
  1 18  1  0  0  0  0
  2 22  1  0  0  0  0
  3 12  2  0  0  0  0
  4 12  1  0  0  0  0
  4 23  1  0  0  0  0
  5  6  1  0  0  0  0
  5 13  1  0  0  0  0
  5 24  1  0  0  0  0
  6 11  2  0  0  0  0
  7  4  1  0  0  0  0
  7  8  1  0  0  0  0
  7 10  1  0  0  0  0
  7 25  1  6  0  0  0
  8 14  2  0  0  0  0
  8 15  1  0  0  0  0
  9 11  1  0  0  0  0
  9 13  2  0  0  0  0
  9 16  1  0  0  0  0
 10 26  1  0  0  0  0
 10 27  1  0  0  0  0
 10 28  1  0  0  0  0
 11 12  1  0  0  0  0
 13 17  1  0  0  0  0
 14 18  1  0  0  0  0
 14 29  1  0  0  0  0
 15 19  2  0  0  0  0
 15 30  1  0  0  0  0
 16 20  2  0  0  0  0
 16 31  1  0  0  0  0
 17 21  2  0  0  0  0
 17 32  1  0  0  0  0
 18 22  2  0  0  0  0
 19 22  1  0  0  0  0
 19 33  1  0  0  0  0
 20 21  1  0  0  0  0
 20 34  1  0  0  0  0
 21 35  1  0  0  0  0
M  END
>  <Mol_ID>
6679

>  <Formula>
C16H13F2N3O

>  <MolWeight>
301.2907264

>  <Cat>
S4465

>  <Name>
VPC-80051

>  <Synonyms>
N/A

>  <Target>
Others

>  <Form>
Free base

>  <CAS>
877969-69-2

>  <URL>
http://www.selleckchem.com/products/vpc-80051.html

$$$$
