VR23.cdx
 OpenBabel08302519563D

 48 51  0  0  0  0  0  0  0  0999 V2000
   -0.0557   -0.8075   -3.8080 C   0  0  0  0  0  0  0  0  0  0  0  0
   -0.1301    0.5761   -3.8178 C   0  0  0  0  0  0  0  0  0  0  0  0
   -0.4818    1.2554   -2.6501 C   0  0  0  0  0  0  0  0  0  0  0  0
   -0.7753    0.5874   -1.4689 C   0  0  0  0  0  0  0  0  0  0  0  0
   -0.6995   -0.8258   -1.4388 C   0  0  0  0  0  0  0  0  0  0  0  0
   -0.3193   -1.4984   -2.6265 C   0  0  0  0  0  0  0  0  0  0  0  0
   -1.0971    1.3275   -0.3981 N   0  0  0  0  0  0  0  0  0  0  0  0
   -1.3610    0.6839    0.7523 C   0  0  0  0  0  0  0  0  0  0  0  0
   -1.3138   -0.6895    0.8963 C   0  0  0  0  0  0  0  0  0  0  0  0
   -0.9638   -1.4840   -0.2018 C   0  0  0  0  0  0  0  0  0  0  0  0
   -0.7905   -2.8777   -0.0748 N   0  0  0  0  0  0  0  0  0  0  0  0
   -0.3382   -3.3736    1.2432 C   0  0  0  0  0  0  0  0  0  0  0  0
    0.2132   -4.8048    1.0880 C   0  0  0  0  0  0  0  0  0  0  0  0
   -0.8082   -5.7221    0.4736 N   0  0  0  0  0  0  0  0  0  0  0  0
   -1.3250   -5.1699   -0.8191 C   0  0  0  0  0  0  0  0  0  0  0  0
   -1.8539   -3.7244   -0.6710 C   0  0  0  0  0  0  0  0  0  0  0  0
   -1.9338   -6.4046    1.5507 S   0  0  0  0  0  0  0  0  0  0  0  0
   -1.1601   -7.9382    2.0231 C   0  0  0  0  0  0  0  0  0  0  0  0
    0.0818   -8.2915    1.4702 C   0  0  0  0  0  0  0  0  0  0  0  0
    0.6521   -9.5416    1.7355 C   0  0  0  0  0  0  0  0  0  0  0  0
   -0.0197  -10.4514    2.5596 C   0  0  0  0  0  0  0  0  0  0  0  0
   -1.2558  -10.1169    3.1274 C   0  0  0  0  0  0  0  0  0  0  0  0
   -1.8242   -8.8610    2.8402 C   0  0  0  0  0  0  0  0  0  0  0  0
    0.5676  -11.7729    2.8008 N   0  3  0  0  0  0  0  0  0  0  0  0
    1.6083  -12.0624    2.1898 O   0  0  0  0  0  0  0  0  0  0  0  0
   -0.0180  -12.5266    3.5982 O   0  5  0  0  0  0  0  0  0  0  0  0
   -3.1441   -8.6002    3.3931 N   0  3  0  0  0  0  0  0  0  0  0  0
   -3.2839   -7.5904    4.0863 O   0  0  0  0  0  0  0  0  0  0  0  0
   -4.0050   -9.4676    3.2002 O   0  5  0  0  0  0  0  0  0  0  0  0
   -1.9718   -5.5582    2.7186 O   0  0  0  0  0  0  0  0  0  0  0  0
   -3.1114   -6.7886    0.8047 O   0  0  0  0  0  0  0  0  0  0  0  0
    0.2184   -1.3500   -4.7084 H   0  0  0  0  0  0  0  0  0  0  0  0
    0.0929    1.1328   -4.7238 H   0  0  0  0  0  0  0  0  0  0  0  0
   -0.5197    2.3426   -2.6585 H   0  0  0  0  0  0  0  0  0  0  0  0
   -0.2173   -2.5796   -2.6314 H   0  0  0  0  0  0  0  0  0  0  0  0
   -1.6099    1.3246    1.5936 H   0  0  0  0  0  0  0  0  0  0  0  0
   -1.5446   -1.1139    1.8657 H   0  0  0  0  0  0  0  0  0  0  0  0
    0.4644   -2.7405    1.6378 H   0  0  0  0  0  0  0  0  0  0  0  0
   -1.1694   -3.3532    1.9565 H   0  0  0  0  0  0  0  0  0  0  0  0
    1.0902   -4.7942    0.4294 H   0  0  0  0  0  0  0  0  0  0  0  0
    0.5537   -5.1942    2.0535 H   0  0  0  0  0  0  0  0  0  0  0  0
   -0.4835   -5.1782   -1.5262 H   0  0  0  0  0  0  0  0  0  0  0  0
   -2.0829   -5.8292   -1.2517 H   0  0  0  0  0  0  0  0  0  0  0  0
   -2.7490   -3.7115   -0.0377 H   0  0  0  0  0  0  0  0  0  0  0  0
   -2.1477   -3.3687   -1.6641 H   0  0  0  0  0  0  0  0  0  0  0  0
    0.6156   -7.6255    0.7960 H   0  0  0  0  0  0  0  0  0  0  0  0
    1.6061   -9.7930    1.2752 H   0  0  0  0  0  0  0  0  0  0  0  0
   -1.7858  -10.8240    3.7664 H   0  0  0  0  0  0  0  0  0  0  0  0
  1  2  2  0  0  0  0
  1 32  1  0  0  0  0
  2  3  1  0  0  0  0
  2 33  1  0  0  0  0
  3  4  2  0  0  0  0
  3 34  1  0  0  0  0
  4  5  1  0  0  0  0
  4  7  1  0  0  0  0
  5  6  2  0  0  0  0
  6  1  1  0  0  0  0
  6 35  1  0  0  0  0
  7  8  2  0  0  0  0
  8  9  1  0  0  0  0
  8 36  1  0  0  0  0
  9 10  2  0  0  0  0
  9 37  1  0  0  0  0
 10  5  1  0  0  0  0
 10 11  1  0  0  0  0
 11 12  1  0  0  0  0
 12 13  1  0  0  0  0
 12 38  1  0  0  0  0
 12 39  1  0  0  0  0
 13 14  1  0  0  0  0
 13 40  1  0  0  0  0
 13 41  1  0  0  0  0
 14 15  1  0  0  0  0
 14 17  1  0  0  0  0
 15 16  1  0  0  0  0
 15 42  1  0  0  0  0
 15 43  1  0  0  0  0
 16 11  1  0  0  0  0
 16 44  1  0  0  0  0
 16 45  1  0  0  0  0
 17 18  1  0  0  0  0
 17 30  2  0  0  0  0
 17 31  2  0  0  0  0
 18 19  2  0  0  0  0
 19 20  1  0  0  0  0
 19 46  1  0  0  0  0
 20 21  2  0  0  0  0
 20 47  1  0  0  0  0
 21 22  1  0  0  0  0
 21 24  1  0  0  0  0
 22 23  2  0  0  0  0
 22 48  1  0  0  0  0
 23 18  1  0  0  0  0
 23 27  1  0  0  0  0
 24 25  2  0  0  0  0
 24 26  1  0  0  0  0
 27 28  2  0  0  0  0
 27 29  1  0  0  0  0
M  CHG  4  24   1  26  -1  27   1  29  -1
M  END
>  <Mol_ID>
2207

>  <Formula>
C19H16ClN5O6S

>  <MolWeight>
477.87824

>  <Cat>
S7933

>  <Name>
VR23

>  <Synonyms>
N/A

>  <Target>
Proteasome

>  <Form>
free base

>  <CAS>
1624602-30-7

>  <URL>
http://selleckchem.com/products/vr23.html

$$$$
