VS-5584 (SB2343).cdx
 OpenBabel08302519583D

 48 51  0  0  0  0  0  0  0  0999 V2000
   -0.3399    1.4018   -0.7111 N   0  0  0  0  0  0  0  0  0  0  0  0
    0.9967    1.5881   -1.0264 C   0  0  0  0  0  0  0  0  0  0  0  0
    1.9290    2.3421   -0.3149 C   0  0  0  0  0  0  0  0  0  0  0  0
    1.2230    3.0496    0.6834 C   0  0  0  0  0  0  0  0  0  0  0  0
   -0.0975    2.9406    1.0316 N   0  0  0  0  0  0  0  0  0  0  0  0
   -0.8124    2.0388    0.3754 C   0  0  0  0  0  0  0  0  0  0  0  0
    3.4348    2.0109   -0.1715 C   0  0  0  0  0  0  0  0  0  0  0  0
   -2.0477    1.7034    0.8784 N   0  0  0  0  0  0  0  0  0  0  0  0
    4.2290    1.2942   -1.1370 N   0  0  0  0  0  0  0  0  0  0  0  0
    5.1510    0.3076   -0.7367 C   0  0  0  0  0  0  0  0  0  0  0  0
    5.2400   -0.1188    0.5160 N   0  0  0  0  0  0  0  0  0  0  0  0
    4.3072    0.4134    1.2778 C   0  0  0  0  0  0  0  0  0  0  0  0
    3.7827    1.6882    1.1778 C   0  0  0  0  0  0  0  0  0  0  0  0
    5.8076   -0.5753   -1.5908 N   0  0  0  0  0  0  0  0  0  0  0  0
    3.0838   -0.2273    1.5457 N   0  0  0  0  0  0  0  0  0  0  0  0
    2.4672    0.6622    2.4283 C   0  0  0  0  0  0  0  0  0  0  0  0
    3.0664    1.8432    2.3233 N   0  0  0  0  0  0  0  0  0  0  0  0
    2.6169   -1.3627    0.7201 C   0  0  0  0  0  0  0  0  0  0  0  0
    2.5132   -1.2404   -0.8465 C   0  0  0  0  0  0  0  0  0  0  0  0
    1.2922   -1.9453    1.1592 C   0  0  0  0  0  0  0  0  0  0  0  0
    1.2624    0.5089    3.2672 C   0  0  0  0  0  0  0  0  0  0  0  0
    5.9601   -0.2428   -2.9872 C   0  0  0  0  0  0  0  0  0  0  0  0
    7.2769    0.5252   -3.1038 C   0  0  0  0  0  0  0  0  0  0  0  0
    8.4355   -0.2351   -2.7213 O   0  0  0  0  0  0  0  0  0  0  0  0
    8.1683   -1.4177   -1.9588 C   0  0  0  0  0  0  0  0  0  0  0  0
    6.9432   -1.3564   -1.0182 C   0  0  0  0  0  0  0  0  0  0  0  0
    1.2916    0.9917   -1.8782 H   0  0  0  0  0  0  0  0  0  0  0  0
    1.7614    3.6873    1.3814 H   0  0  0  0  0  0  0  0  0  0  0  0
   -2.6697    1.2424    0.2266 H   0  0  0  0  0  0  0  0  0  0  0  0
   -2.4279    2.4197    1.4798 H   0  0  0  0  0  0  0  0  0  0  0  0
    3.3964   -2.1175    0.8779 H   0  0  0  0  0  0  0  0  0  0  0  0
    2.7602   -0.2927   -1.2867 H   0  0  0  0  0  0  0  0  0  0  0  0
    3.1787   -1.9617   -1.3372 H   0  0  0  0  0  0  0  0  0  0  0  0
    1.5069   -1.4530   -1.2303 H   0  0  0  0  0  0  0  0  0  0  0  0
    0.4951   -1.2006    1.0801 H   0  0  0  0  0  0  0  0  0  0  0  0
    1.0090   -2.7791    0.5064 H   0  0  0  0  0  0  0  0  0  0  0  0
    1.3650   -2.3179    2.1804 H   0  0  0  0  0  0  0  0  0  0  0  0
    1.4996   -0.0073    4.1975 H   0  0  0  0  0  0  0  0  0  0  0  0
    0.9107    1.5152    3.5386 H   0  0  0  0  0  0  0  0  0  0  0  0
    0.4333    0.0300    2.7556 H   0  0  0  0  0  0  0  0  0  0  0  0
    5.1025    0.3016   -3.3784 H   0  0  0  0  0  0  0  0  0  0  0  0
    6.0241   -1.1884   -3.5478 H   0  0  0  0  0  0  0  0  0  0  0  0
    7.2521    1.4021   -2.4527 H   0  0  0  0  0  0  0  0  0  0  0  0
    7.4201    0.8645   -4.1300 H   0  0  0  0  0  0  0  0  0  0  0  0
    9.0703   -1.6364   -1.3694 H   0  0  0  0  0  0  0  0  0  0  0  0
    8.0636   -2.2533   -2.6604 H   0  0  0  0  0  0  0  0  0  0  0  0
    7.3018   -0.9642   -0.0574 H   0  0  0  0  0  0  0  0  0  0  0  0
    6.6116   -2.3867   -0.8249 H   0  0  0  0  0  0  0  0  0  0  0  0
  1  2  2  0  0  0  0
  2  3  1  0  0  0  0
  2 27  1  0  0  0  0
  3  4  2  0  0  0  0
  3  7  1  0  0  0  0
  4  5  1  0  0  0  0
  4 28  1  0  0  0  0
  5  6  2  0  0  0  0
  6  1  1  0  0  0  0
  6  8  1  0  0  0  0
  7  9  2  0  0  0  0
  8 29  1  0  0  0  0
  8 30  1  0  0  0  0
  9 10  1  0  0  0  0
 10 11  2  0  0  0  0
 10 14  1  0  0  0  0
 11 12  1  0  0  0  0
 12 13  2  0  0  0  0
 12 15  1  0  0  0  0
 13  7  1  0  0  0  0
 14 22  1  0  0  0  0
 15 16  1  0  0  0  0
 15 18  1  0  0  0  0
 16 17  2  0  0  0  0
 16 21  1  0  0  0  0
 17 13  1  0  0  0  0
 18 19  1  0  0  0  0
 18 20  1  0  0  0  0
 18 31  1  0  0  0  0
 19 32  1  0  0  0  0
 19 33  1  0  0  0  0
 19 34  1  0  0  0  0
 20 35  1  0  0  0  0
 20 36  1  0  0  0  0
 20 37  1  0  0  0  0
 21 38  1  0  0  0  0
 21 39  1  0  0  0  0
 21 40  1  0  0  0  0
 22 23  1  0  0  0  0
 22 41  1  0  0  0  0
 22 42  1  0  0  0  0
 23 24  1  0  0  0  0
 23 43  1  0  0  0  0
 23 44  1  0  0  0  0
 24 25  1  0  0  0  0
 25 26  1  0  0  0  0
 25 45  1  0  0  0  0
 25 46  1  0  0  0  0
 26 14  1  0  0  0  0
 26 47  1  0  0  0  0
 26 48  1  0  0  0  0
M  END
>  <Mol_ID>
2491

>  <Formula>
C17H22N8O

>  <MolWeight>
354.40958

>  <Cat>
S7016

>  <Name>
VS-5584 (SB2343)

>  <Synonyms>
N/A

>  <Target>
PI3K

>  <Form>
free base

>  <CAS>
1246560-33-7

>  <URL>
http://selleckchem.com/products/vs-5584-sb2343.html

$$$$
