VU-29
 OpenBabel08302521323D

 45 48  0  0  0  0  0  0  0  0999 V2000
    2.0574   -1.1755    0.3457 C   0  0  0  0  0  0  0  0  0  0  0  0
    1.3709   -1.9331   -0.7426 C   0  0  0  0  0  0  0  0  0  0  0  0
    0.2876   -1.4004   -1.4565 C   0  0  0  0  0  0  0  0  0  0  0  0
   -0.3685   -2.1778   -2.4218 C   0  0  0  0  0  0  0  0  0  0  0  0
    0.0675   -3.4844   -2.6838 C   0  0  0  0  0  0  0  0  0  0  0  0
    1.1649   -4.0159   -1.9933 C   0  0  0  0  0  0  0  0  0  0  0  0
    1.8100   -3.2381   -1.0251 C   0  0  0  0  0  0  0  0  0  0  0  0
    2.5561   -1.7980    1.2738 O   0  0  0  0  0  0  0  0  0  0  0  0
    2.1688    0.1993    0.1497 N   0  0  0  0  0  0  0  0  0  0  0  0
   -0.6421   -4.3090   -3.6650 N   0  3  0  0  0  0  0  0  0  0  0  0
   -1.6204   -3.8022   -4.2443 O   0  0  0  0  0  0  0  0  0  0  0  0
   -0.2307   -5.4617   -3.8657 O   0  5  0  0  0  0  0  0  0  0  0  0
    4.0720    1.7281    0.5117 N   0  0  0  0  0  0  0  0  0  0  0  0
    4.5473    2.5371    1.4890 N   0  0  0  0  0  0  0  0  0  0  0  0
    3.9101    2.1593    2.6071 C   0  0  0  0  0  0  0  0  0  0  0  0
    2.9718    1.1298    2.3264 C   0  0  0  0  0  0  0  0  0  0  0  0
    3.0324    0.9257    0.9679 C   0  0  0  0  0  0  0  0  0  0  0  0
    4.1361    2.8397    3.8866 C   0  0  0  0  0  0  0  0  0  0  0  0
    4.6786    4.1356    3.9194 C   0  0  0  0  0  0  0  0  0  0  0  0
    4.8380    4.8123    5.1317 C   0  0  0  0  0  0  0  0  0  0  0  0
    4.4668    4.1991    6.3258 C   0  0  0  0  0  0  0  0  0  0  0  0
    3.9434    2.9078    6.3105 C   0  0  0  0  0  0  0  0  0  0  0  0
    3.7795    2.2315    5.0981 C   0  0  0  0  0  0  0  0  0  0  0  0
    4.6036    1.7995   -0.8048 C   0  0  0  0  0  0  0  0  0  0  0  0
    4.5230    0.7021   -1.6718 C   0  0  0  0  0  0  0  0  0  0  0  0
    4.9098    0.8347   -3.0043 C   0  0  0  0  0  0  0  0  0  0  0  0
    5.4004    2.0520   -3.4636 C   0  0  0  0  0  0  0  0  0  0  0  0
    5.5550    3.1252   -2.5869 C   0  0  0  0  0  0  0  0  0  0  0  0
    5.1782    2.9964   -1.2494 C   0  0  0  0  0  0  0  0  0  0  0  0
   -0.0824   -0.4004   -1.2475 H   0  0  0  0  0  0  0  0  0  0  0  0
   -1.2256   -1.7570   -2.9460 H   0  0  0  0  0  0  0  0  0  0  0  0
    1.5174   -5.0270   -2.1837 H   0  0  0  0  0  0  0  0  0  0  0  0
    2.6555   -3.6596   -0.4804 H   0  0  0  0  0  0  0  0  0  0  0  0
    2.0362    0.5401   -0.7949 H   0  0  0  0  0  0  0  0  0  0  0  0
    2.2442    0.7021    3.0020 H   0  0  0  0  0  0  0  0  0  0  0  0
    4.9665    4.6309    2.9944 H   0  0  0  0  0  0  0  0  0  0  0  0
    5.2477    5.8190    5.1398 H   0  0  0  0  0  0  0  0  0  0  0  0
    4.5871    4.7262    7.2688 H   0  0  0  0  0  0  0  0  0  0  0  0
    3.6595    2.4251    7.2420 H   0  0  0  0  0  0  0  0  0  0  0  0
    3.3738    1.2232    5.1159 H   0  0  0  0  0  0  0  0  0  0  0  0
    4.2056   -0.2763   -1.3239 H   0  0  0  0  0  0  0  0  0  0  0  0
    4.8305   -0.0139   -3.6805 H   0  0  0  0  0  0  0  0  0  0  0  0
    5.6795    2.1638   -4.5112 H   0  0  0  0  0  0  0  0  0  0  0  0
    5.9540    4.0707   -2.9475 H   0  0  0  0  0  0  0  0  0  0  0  0
    5.2886    3.8479   -0.5803 H   0  0  0  0  0  0  0  0  0  0  0  0
  1  2  1  0  0  0  0
  1  8  2  0  0  0  0
  1  9  1  0  0  0  0
  2  3  2  0  0  0  0
  2  7  1  0  0  0  0
  3  4  1  0  0  0  0
  3 30  1  0  0  0  0
  4  5  2  0  0  0  0
  4 31  1  0  0  0  0
  5  6  1  0  0  0  0
  5 10  1  0  0  0  0
  6  7  2  0  0  0  0
  6 32  1  0  0  0  0
  7 33  1  0  0  0  0
  9 17  1  0  0  0  0
  9 34  1  0  0  0  0
 10 11  2  0  0  0  0
 10 12  1  0  0  0  0
 13 14  1  0  0  0  0
 13 17  1  0  0  0  0
 13 24  1  0  0  0  0
 14 15  2  0  0  0  0
 15 16  1  0  0  0  0
 15 18  1  0  0  0  0
 16 17  2  0  0  0  0
 16 35  1  0  0  0  0
 18 19  2  0  0  0  0
 18 23  1  0  0  0  0
 19 20  1  0  0  0  0
 19 36  1  0  0  0  0
 20 21  2  0  0  0  0
 20 37  1  0  0  0  0
 21 22  1  0  0  0  0
 21 38  1  0  0  0  0
 22 23  2  0  0  0  0
 22 39  1  0  0  0  0
 23 40  1  0  0  0  0
 24 25  2  0  0  0  0
 24 29  1  0  0  0  0
 25 26  1  0  0  0  0
 25 41  1  0  0  0  0
 26 27  2  0  0  0  0
 26 42  1  0  0  0  0
 27 28  1  0  0  0  0
 27 43  1  0  0  0  0
 28 29  2  0  0  0  0
 28 44  1  0  0  0  0
 29 45  1  0  0  0  0
M  CHG  2  10   1  12  -1
M  END
>  <Mol_ID>
6203

>  <Formula>
C22H16N4O3

>  <MolWeight>
384.38744

>  <Cat>
S1970

>  <Name>
VU-29

>  <Synonyms>
N/A

>  <Target>
GluR

>  <Form>
free base

>  <CAS>
890764-36-0

>  <URL>
http://www.selleckchem.com/products/vu-29.html

$$$$
