VU0238441
 OpenBabel08302521283D

 32 34  0  0  0  0  0  0  0  0999 V2000
    1.5799   -0.2537    1.0949 F   0  0  0  0  0  0  0  0  0  0  0  0
    1.8727    1.1910   -0.5009 F   0  0  0  0  0  0  0  0  0  0  0  0
    3.5521    0.5894    0.7429 F   0  0  0  0  0  0  0  0  0  0  0  0
    3.7691   -2.8142   -6.4237 O   0  0  0  0  0  0  0  0  0  0  0  0
    1.3290   -3.3533   -8.0563 O   0  0  0  0  0  0  0  0  0  0  0  0
    2.5851   -4.1245   -4.8694 N   0  0  0  0  0  0  0  0  0  0  0  0
    3.5352   -4.1269   -3.7797 C   0  0  0  0  0  0  0  0  0  0  0  0
    1.3708   -4.8363   -4.9139 C   0  0  0  0  0  0  0  0  0  0  0  0
    0.7185   -4.6379   -6.1308 C   0  0  0  0  0  0  0  0  0  0  0  0
    3.2775   -3.0434   -2.7532 C   0  0  0  0  0  0  0  0  0  0  0  0
    2.8051   -3.4634   -6.0690 C   0  0  0  0  0  0  0  0  0  0  0  0
    1.5577   -3.7544   -6.9385 C   0  0  0  0  0  0  0  0  0  0  0  0
    0.8164   -5.6775   -3.9680 C   0  0  0  0  0  0  0  0  0  0  0  0
   -0.4846   -5.2361   -6.4562 C   0  0  0  0  0  0  0  0  0  0  0  0
    2.4596   -3.2831   -1.6405 C   0  0  0  0  0  0  0  0  0  0  0  0
    3.8547   -1.7730   -2.8961 C   0  0  0  0  0  0  0  0  0  0  0  0
   -0.4028   -6.3028   -4.2709 C   0  0  0  0  0  0  0  0  0  0  0  0
    2.7596   -0.9971   -0.8640 C   0  0  0  0  0  0  0  0  0  0  0  0
   -1.0488   -6.0826   -5.5017 C   0  0  0  0  0  0  0  0  0  0  0  0
    2.2037   -2.2737   -0.7069 C   0  0  0  0  0  0  0  0  0  0  0  0
    3.6029   -0.7631   -1.9599 C   0  0  0  0  0  0  0  0  0  0  0  0
    2.4451    0.1153    0.1079 C   0  0  0  0  0  0  0  0  0  0  0  0
    4.5393   -3.9820   -4.1965 H   0  0  0  0  0  0  0  0  0  0  0  0
    3.5488   -5.1133   -3.3030 H   0  0  0  0  0  0  0  0  0  0  0  0
    1.2982   -5.8810   -3.0196 H   0  0  0  0  0  0  0  0  0  0  0  0
   -0.9600   -5.0641   -7.4166 H   0  0  0  0  0  0  0  0  0  0  0  0
    2.0094   -4.2595   -1.4841 H   0  0  0  0  0  0  0  0  0  0  0  0
    4.5060   -1.5575   -3.7435 H   0  0  0  0  0  0  0  0  0  0  0  0
   -0.8547   -6.9783   -3.5462 H   0  0  0  0  0  0  0  0  0  0  0  0
   -1.9914   -6.5860   -5.7128 H   0  0  0  0  0  0  0  0  0  0  0  0
    1.5578   -2.4888    0.1436 H   0  0  0  0  0  0  0  0  0  0  0  0
    4.0609    0.2166   -2.0962 H   0  0  0  0  0  0  0  0  0  0  0  0
  1 22  1  0  0  0  0
  2 22  1  0  0  0  0
  3 22  1  0  0  0  0
  4 11  2  0  0  0  0
  5 12  2  0  0  0  0
  6  7  1  0  0  0  0
  6  8  1  0  0  0  0
  6 11  1  0  0  0  0
  7 10  1  0  0  0  0
  7 23  1  0  0  0  0
  7 24  1  0  0  0  0
  8  9  2  0  0  0  0
  8 13  1  0  0  0  0
  9 12  1  0  0  0  0
  9 14  1  0  0  0  0
 10 15  2  0  0  0  0
 10 16  1  0  0  0  0
 11 12  1  0  0  0  0
 13 17  2  0  0  0  0
 13 25  1  0  0  0  0
 14 19  2  0  0  0  0
 14 26  1  0  0  0  0
 15 20  1  0  0  0  0
 15 27  1  0  0  0  0
 16 21  2  0  0  0  0
 16 28  1  0  0  0  0
 17 19  1  0  0  0  0
 17 29  1  0  0  0  0
 18 20  2  0  0  0  0
 18 21  1  0  0  0  0
 18 22  1  0  0  0  0
 19 30  1  0  0  0  0
 20 31  1  0  0  0  0
 21 32  1  0  0  0  0
M  END
>  <Mol_ID>
5395

>  <Formula>
C16H9ClF3NO2

>  <MolWeight>
339.6963696

>  <Cat>
S0782

>  <Name>
VU0238441

>  <Synonyms>
N/A

>  <Target>
AChR

>  <Form>
Free Base

>  <CAS>
85511-68-8

>  <URL>
https://www.selleckchem.com/products/vu0238441.html

$$$$
