VU 0364439.cdx
 OpenBabel08302520403D

 40 42  0  0  0  0  0  0  0  0999 V2000
   -0.7921    1.1099   -0.4933 C   0  0  0  0  0  0  0  0  0  0  0  0
    0.5797    1.3025   -0.3561 C   0  0  0  0  0  0  0  0  0  0  0  0
    1.3810    0.1992   -0.0900 C   0  0  0  0  0  0  0  0  0  0  0  0
    0.7802   -1.0462    0.0293 C   0  0  0  0  0  0  0  0  0  0  0  0
   -0.6021   -1.1490   -0.1263 C   0  0  0  0  0  0  0  0  0  0  0  0
   -1.4140   -0.0912   -0.3891 N   0  0  0  0  0  0  0  0  0  0  0  0
   -1.2163   -2.5018    0.0222 C   0  0  0  0  0  0  0  0  0  0  0  0
   -2.5899   -2.6008   -0.1781 N   0  0  0  0  0  0  0  0  0  0  0  0
   -0.4646   -3.4413    0.2783 O   0  0  0  0  0  0  0  0  0  0  0  0
   -3.3407   -3.7929   -0.0297 C   0  0  0  0  0  0  0  0  0  0  0  0
   -2.8286   -4.9197    0.6302 C   0  0  0  0  0  0  0  0  0  0  0  0
   -3.5593   -6.1037    0.7388 C   0  0  0  0  0  0  0  0  0  0  0  0
   -4.8436   -6.1629    0.2156 C   0  0  0  0  0  0  0  0  0  0  0  0
   -5.3843   -5.0540   -0.4494 C   0  0  0  0  0  0  0  0  0  0  0  0
   -4.6360   -3.8665   -0.5570 C   0  0  0  0  0  0  0  0  0  0  0  0
   -5.7680   -7.6850    0.3408 S   0  0  0  0  0  0  0  0  0  0  0  0
   -6.7343   -7.6801   -0.7345 O   0  0  0  0  0  0  0  0  0  0  0  0
   -4.8308   -8.7731    0.5039 O   0  0  0  0  0  0  0  0  0  0  0  0
   -6.6553   -7.4835    1.7709 N   0  0  0  0  0  0  0  0  0  0  0  0
   -5.9506   -7.3615    3.0000 C   0  0  0  0  0  0  0  0  0  0  0  0
   -5.7108   -6.1034    3.5522 C   0  0  0  0  0  0  0  0  0  0  0  0
   -4.9333   -5.9903    4.7072 C   0  0  0  0  0  0  0  0  0  0  0  0
   -4.4107   -7.1328    5.3143 C   0  0  0  0  0  0  0  0  0  0  0  0
   -4.6736   -8.3912    4.7748 C   0  0  0  0  0  0  0  0  0  0  0  0
   -5.4368   -8.5046    3.6122 C   0  0  0  0  0  0  0  0  0  0  0  0
   -1.4402    1.9563   -0.6965 H   0  0  0  0  0  0  0  0  0  0  0  0
    1.0190    2.2894   -0.4531 H   0  0  0  0  0  0  0  0  0  0  0  0
    2.4575    0.3004    0.0269 H   0  0  0  0  0  0  0  0  0  0  0  0
    1.3822   -1.9255    0.2432 H   0  0  0  0  0  0  0  0  0  0  0  0
   -3.0473   -1.7639   -0.5312 H   0  0  0  0  0  0  0  0  0  0  0  0
   -1.8478   -4.9109    1.0947 H   0  0  0  0  0  0  0  0  0  0  0  0
   -3.1115   -6.9606    1.2370 H   0  0  0  0  0  0  0  0  0  0  0  0
   -6.3725   -5.1100   -0.9010 H   0  0  0  0  0  0  0  0  0  0  0  0
   -5.0686   -3.0225   -1.0891 H   0  0  0  0  0  0  0  0  0  0  0  0
   -7.4736   -6.8933    1.6337 H   0  0  0  0  0  0  0  0  0  0  0  0
   -6.0996   -5.2038    3.0844 H   0  0  0  0  0  0  0  0  0  0  0  0
   -4.7234   -5.0102    5.1285 H   0  0  0  0  0  0  0  0  0  0  0  0
   -3.7935   -7.0431    6.2052 H   0  0  0  0  0  0  0  0  0  0  0  0
   -4.2752   -9.2839    5.2504 H   0  0  0  0  0  0  0  0  0  0  0  0
   -5.6278   -9.4869    3.1870 H   0  0  0  0  0  0  0  0  0  0  0  0
  1  2  2  0  0  0  0
  1 26  1  0  0  0  0
  2  3  1  0  0  0  0
  2 27  1  0  0  0  0
  3  4  2  0  0  0  0
  3 28  1  0  0  0  0
  4  5  1  0  0  0  0
  4 29  1  0  0  0  0
  5  6  2  0  0  0  0
  5  7  1  0  0  0  0
  6  1  1  0  0  0  0
  7  8  1  0  0  0  0
  7  9  2  0  0  0  0
  8 10  1  0  0  0  0
  8 30  1  0  0  0  0
 10 11  2  0  0  0  0
 11 12  1  0  0  0  0
 11 31  1  0  0  0  0
 12 13  2  0  0  0  0
 12 32  1  0  0  0  0
 13 14  1  0  0  0  0
 13 16  1  0  0  0  0
 14 15  2  0  0  0  0
 14 33  1  0  0  0  0
 15 10  1  0  0  0  0
 15 34  1  0  0  0  0
 16 17  2  0  0  0  0
 16 18  2  0  0  0  0
 16 19  1  0  0  0  0
 19 20  1  0  0  0  0
 19 35  1  0  0  0  0
 20 21  2  0  0  0  0
 21 22  1  0  0  0  0
 21 36  1  0  0  0  0
 22 23  2  0  0  0  0
 22 37  1  0  0  0  0
 23 24  1  0  0  0  0
 23 38  1  0  0  0  0
 24 25  2  0  0  0  0
 24 39  1  0  0  0  0
 25 20  1  0  0  0  0
 25 40  1  0  0  0  0
M  END
>  <Mol_ID>
3862

>  <Formula>
C18H13Cl2N3O3S

>  <MolWeight>
422.28512

>  <Cat>
S8035

>  <Name>
VU 0364439

>  <Synonyms>
N/A

>  <Target>
GluR

>  <Form>
Free Base

>  <CAS>
1246086-78-1

>  <URL>
http://selleckchem.com/products/vu-0364439.html

$$$$
