VU 0357121.cdx
 OpenBabel08302521313D

 39 40  0  0  0  0  0  0  0  0999 V2000
    1.0975   -0.2585    0.5686 C   0  0  0  0  0  0  0  0  0  0  0  0
    0.2843   -1.3345    0.2156 C   0  0  0  0  0  0  0  0  0  0  0  0
   -1.0532   -1.0980   -0.1197 C   0  0  0  0  0  0  0  0  0  0  0  0
   -1.5836    0.1972   -0.0972 C   0  0  0  0  0  0  0  0  0  0  0  0
   -0.7600    1.2656    0.2483 C   0  0  0  0  0  0  0  0  0  0  0  0
    0.5782    1.0432    0.5804 C   0  0  0  0  0  0  0  0  0  0  0  0
   -1.2769    2.6617    0.1896 C   0  0  0  0  0  0  0  0  0  0  0  0
   -2.5053    2.8594    0.7952 N   0  0  0  0  0  0  0  0  0  0  0  0
   -0.5766    3.5343   -0.3122 O   0  0  0  0  0  0  0  0  0  0  0  0
   -3.1495    4.1143    0.8403 C   0  0  0  0  0  0  0  0  0  0  0  0
    0.6638   -2.6472    0.1370 O   0  0  0  0  0  0  0  0  0  0  0  0
    1.9098   -3.0024    0.7369 C   0  0  0  0  0  0  0  0  0  0  0  0
    1.9855   -4.5210    0.9133 C   0  0  0  0  0  0  0  0  0  0  0  0
    2.1607   -5.3433   -0.3682 C   0  0  0  0  0  0  0  0  0  0  0  0
    0.9914   -5.2756   -1.3371 C   0  0  0  0  0  0  0  0  0  0  0  0
   -3.8062    4.4844    2.0193 C   0  0  0  0  0  0  0  0  0  0  0  0
   -4.4294    5.7202    2.1410 C   0  0  0  0  0  0  0  0  0  0  0  0
   -4.4421    6.5725    1.0457 C   0  0  0  0  0  0  0  0  0  0  0  0
   -3.8330    6.2122   -0.1535 C   0  0  0  0  0  0  0  0  0  0  0  0
   -3.1693    4.9854   -0.2533 C   0  0  0  0  0  0  0  0  0  0  0  0
   -3.7867    3.6562    3.0753 F   0  0  0  0  0  0  0  0  0  0  0  0
   -5.0529    7.7605    1.1433 F   0  0  0  0  0  0  0  0  0  0  0  0
    2.1464   -0.3944    0.8179 H   0  0  0  0  0  0  0  0  0  0  0  0
   -1.6844   -1.9324   -0.4124 H   0  0  0  0  0  0  0  0  0  0  0  0
   -2.6182    0.3548   -0.3963 H   0  0  0  0  0  0  0  0  0  0  0  0
    1.2236    1.8814    0.8396 H   0  0  0  0  0  0  0  0  0  0  0  0
   -2.7667    2.1962    1.5182 H   0  0  0  0  0  0  0  0  0  0  0  0
    2.7442   -2.6455    0.1231 H   0  0  0  0  0  0  0  0  0  0  0  0
    1.9771   -2.5576    1.7378 H   0  0  0  0  0  0  0  0  0  0  0  0
    2.8385   -4.7440    1.5657 H   0  0  0  0  0  0  0  0  0  0  0  0
    1.0836   -4.8698    1.4310 H   0  0  0  0  0  0  0  0  0  0  0  0
    3.0824   -5.0511   -0.8846 H   0  0  0  0  0  0  0  0  0  0  0  0
    2.2926   -6.3915   -0.0699 H   0  0  0  0  0  0  0  0  0  0  0  0
    1.0678   -4.3947   -1.9814 H   0  0  0  0  0  0  0  0  0  0  0  0
    0.9922   -6.1585   -1.9863 H   0  0  0  0  0  0  0  0  0  0  0  0
    0.0310   -5.2470   -0.8139 H   0  0  0  0  0  0  0  0  0  0  0  0
   -4.8898    6.0169    3.0754 H   0  0  0  0  0  0  0  0  0  0  0  0
   -3.8733    6.8898   -1.0014 H   0  0  0  0  0  0  0  0  0  0  0  0
   -2.6969    4.7113   -1.1940 H   0  0  0  0  0  0  0  0  0  0  0  0
  1  2  2  0  0  0  0
  1 23  1  0  0  0  0
  2  3  1  0  0  0  0
  2 11  1  0  0  0  0
  3  4  2  0  0  0  0
  3 24  1  0  0  0  0
  4  5  1  0  0  0  0
  4 25  1  0  0  0  0
  5  6  2  0  0  0  0
  5  7  1  0  0  0  0
  6  1  1  0  0  0  0
  6 26  1  0  0  0  0
  7  8  1  0  0  0  0
  7  9  2  0  0  0  0
  8 10  1  0  0  0  0
  8 27  1  0  0  0  0
 10 16  2  0  0  0  0
 11 12  1  0  0  0  0
 12 13  1  0  0  0  0
 12 28  1  0  0  0  0
 12 29  1  0  0  0  0
 13 14  1  0  0  0  0
 13 30  1  0  0  0  0
 13 31  1  0  0  0  0
 14 15  1  0  0  0  0
 14 32  1  0  0  0  0
 14 33  1  0  0  0  0
 15 34  1  0  0  0  0
 15 35  1  0  0  0  0
 15 36  1  0  0  0  0
 16 17  1  0  0  0  0
 16 21  1  0  0  0  0
 17 18  2  0  0  0  0
 17 37  1  0  0  0  0
 18 19  1  0  0  0  0
 18 22  1  0  0  0  0
 19 20  2  0  0  0  0
 19 38  1  0  0  0  0
 20 10  1  0  0  0  0
 20 39  1  0  0  0  0
M  END
>  <Mol_ID>
573

>  <Formula>
C17H17F2NO2

>  <MolWeight>
305.3191864

>  <Cat>
S2795

>  <Name>
VU 0357121

>  <Synonyms>
N/A

>  <Target>
GluR

>  <Form>
free base

>  <CAS>
433967-28-3

>  <URL>
http://selleckchem.com/products/vu-0357121.html

$$$$
