Walrycin B
 OpenBabel08302521273D

 34 36  0  0  0  0  0  0  0  0999 V2000
    3.0903    0.3629   -1.1018 F   0  0  0  0  0  0  0  0  0  0  0  0
    3.6787    1.1549    0.8350 F   0  0  0  0  0  0  0  0  0  0  0  0
    1.5897    0.7061    0.4341 F   0  0  0  0  0  0  0  0  0  0  0  0
    5.2033   -8.0094   -0.1550 O   0  0  0  0  0  0  0  0  0  0  0  0
    4.9684  -10.9491    3.3658 O   0  0  0  0  0  0  0  0  0  0  0  0
    3.7559   -6.5657    4.1529 N   0  0  0  0  0  0  0  0  0  0  0  0
    5.1217   -9.5273    1.5941 N   0  0  0  0  0  0  0  0  0  0  0  0
    4.2250   -6.0313    1.5130 N   0  0  0  0  0  0  0  0  0  0  0  0
    3.5270   -5.3079    3.6611 N   0  0  0  0  0  0  0  0  0  0  0  0
    4.3980   -8.8188    3.7576 N   0  0  0  0  0  0  0  0  0  0  0  0
    4.4485   -7.2342    1.9461 C   0  0  0  0  0  0  0  0  0  0  0  0
    4.1995   -7.6057    3.3657 C   0  0  0  0  0  0  0  0  0  0  0  0
    3.7552   -5.0884    2.3974 C   0  0  0  0  0  0  0  0  0  0  0  0
    3.5029   -3.7288    1.8221 C   0  0  0  0  0  0  0  0  0  0  0  0
    4.9635   -8.2853    1.0133 C   0  0  0  0  0  0  0  0  0  0  0  0
    3.6842   -3.4789    0.4549 C   0  0  0  0  0  0  0  0  0  0  0  0
    3.0814   -2.6862    2.6572 C   0  0  0  0  0  0  0  0  0  0  0  0
    4.8342   -9.8101    2.9234 C   0  0  0  0  0  0  0  0  0  0  0  0
    3.0593   -1.1483    0.7702 C   0  0  0  0  0  0  0  0  0  0  0  0
    3.3911   -6.7549    5.5492 C   0  0  0  0  0  0  0  0  0  0  0  0
    3.4615   -2.1996   -0.0669 C   0  0  0  0  0  0  0  0  0  0  0  0
    2.8617   -1.4078    2.1352 C   0  0  0  0  0  0  0  0  0  0  0  0
    5.6078  -10.5881    0.7331 C   0  0  0  0  0  0  0  0  0  0  0  0
    2.8568    0.2493    0.2350 C   0  0  0  0  0  0  0  0  0  0  0  0
    4.0046   -4.2731   -0.2172 H   0  0  0  0  0  0  0  0  0  0  0  0
    2.9274   -2.8568    3.7203 H   0  0  0  0  0  0  0  0  0  0  0  0
    3.9889   -6.0982    6.1896 H   0  0  0  0  0  0  0  0  0  0  0  0
    2.3326   -6.5150    5.6958 H   0  0  0  0  0  0  0  0  0  0  0  0
    3.5472   -7.7832    5.8897 H   0  0  0  0  0  0  0  0  0  0  0  0
    3.6125   -2.0289   -1.1324 H   0  0  0  0  0  0  0  0  0  0  0  0
    2.5421   -0.6079    2.8026 H   0  0  0  0  0  0  0  0  0  0  0  0
    4.9216  -10.7015   -0.1127 H   0  0  0  0  0  0  0  0  0  0  0  0
    6.5897  -10.3017    0.3419 H   0  0  0  0  0  0  0  0  0  0  0  0
    5.6980  -11.5475    1.2482 H   0  0  0  0  0  0  0  0  0  0  0  0
  1 24  1  0  0  0  0
  2 24  1  0  0  0  0
  3 24  1  0  0  0  0
  4 15  2  0  0  0  0
  5 18  2  0  0  0  0
  6  9  1  0  0  0  0
  6 12  1  0  0  0  0
  6 20  1  0  0  0  0
  7 15  1  0  0  0  0
  7 18  1  0  0  0  0
  7 23  1  0  0  0  0
  8 11  2  0  0  0  0
  8 13  1  0  0  0  0
  9 13  2  0  0  0  0
 10 12  2  0  0  0  0
 10 18  1  0  0  0  0
 11 12  1  0  0  0  0
 11 15  1  0  0  0  0
 13 14  1  0  0  0  0
 14 16  2  0  0  0  0
 14 17  1  0  0  0  0
 16 21  1  0  0  0  0
 16 25  1  0  0  0  0
 17 22  2  0  0  0  0
 17 26  1  0  0  0  0
 19 21  2  0  0  0  0
 19 22  1  0  0  0  0
 19 24  1  0  0  0  0
 20 27  1  0  0  0  0
 20 28  1  0  0  0  0
 20 29  1  0  0  0  0
 21 30  1  0  0  0  0
 22 31  1  0  0  0  0
 23 32  1  0  0  0  0
 23 33  1  0  0  0  0
 23 34  1  0  0  0  0
M  END
>  <Mol_ID>
5355

>  <Formula>
C14H10F3N5O2

>  <MolWeight>
337.2567096

>  <Cat>
S0195

>  <Name>
Walrycin B

>  <Synonyms>
N/A

>  <Target>
Bacterial

>  <Form>
Free Base

>  <CAS>
878419-78-4

>  <URL>
https://www.selleckchem.com/products/walrycin-b.html

$$$$
