WAY-325908
 OpenBabel08302521433D

 42 44  0  0  0  0  0  0  0  0999 V2000
    1.6035    0.7354    0.1517 C   0  0  0  0  0  0  0  0  0  0  0  0
    1.5944   -0.3660    0.9410 N   0  0  0  0  0  0  0  0  0  0  0  0
    1.2706   -1.3783    0.1005 N   0  0  0  0  0  0  0  0  0  0  0  0
    1.2696    0.3751   -1.1740 C   0  0  0  0  0  0  0  0  0  0  0  0
    1.2672   -1.0008   -1.2041 C   0  0  0  0  0  0  0  0  0  0  0  0
    1.8778    2.1353    0.6417 C   0  0  0  0  0  0  0  0  0  0  0  0
    0.9565   -2.6844    0.6404 C   0  0  0  0  0  0  0  0  0  0  0  0
   -0.5335   -3.0077    0.6688 C   0  0  0  0  0  0  0  0  0  0  0  0
   -1.2976   -2.3303    1.5932 N   0  0  0  0  0  0  0  0  0  0  0  0
   -1.0010   -3.8979   -0.0449 O   0  0  0  0  0  0  0  0  0  0  0  0
    1.8818    2.2541    1.9954 F   0  0  0  0  0  0  0  0  0  0  0  0
    3.0842    2.5932    0.2034 F   0  0  0  0  0  0  0  0  0  0  0  0
    0.9501    3.0212    0.1803 F   0  0  0  0  0  0  0  0  0  0  0  0
    0.8351    1.1655   -2.3514 C   0  0  0  0  0  0  0  0  0  0  0  0
   -2.6795   -2.6942    1.8884 C   0  0  0  0  0  0  0  0  0  0  0  0
   -5.5711   -0.0218    0.1007 C   0  0  0  0  0  0  0  0  0  0  0  0
   -3.6922   -1.7607    1.2714 C   0  0  0  0  0  0  0  0  0  0  0  0
    1.0526   -1.8371   -2.4185 C   0  0  0  0  0  0  0  0  0  0  0  0
   -4.8107   -0.8713   -0.6993 C   0  0  0  0  0  0  0  0  0  0  0  0
   -5.4241   -0.0595    1.4850 C   0  0  0  0  0  0  0  0  0  0  0  0
   -3.8819   -1.7395   -0.1179 C   0  0  0  0  0  0  0  0  0  0  0  0
   -4.4947   -0.9282    2.0685 C   0  0  0  0  0  0  0  0  0  0  0  0
   -0.2529    0.3193   -3.0489 C   0  0  0  0  0  0  0  0  0  0  0  0
    0.3446   -1.0200   -3.5293 C   0  0  0  0  0  0  0  0  0  0  0  0
    1.4632   -3.4318    0.0188 H   0  0  0  0  0  0  0  0  0  0  0  0
    1.3719   -2.7693    1.6511 H   0  0  0  0  0  0  0  0  0  0  0  0
   -0.9144   -1.5060    2.0437 H   0  0  0  0  0  0  0  0  0  0  0  0
    1.6731    1.3557   -3.0311 H   0  0  0  0  0  0  0  0  0  0  0  0
    0.4137    2.1272   -2.0452 H   0  0  0  0  0  0  0  0  0  0  0  0
   -2.8842   -3.7216    1.5652 H   0  0  0  0  0  0  0  0  0  0  0  0
   -2.7745   -2.6804    2.9806 H   0  0  0  0  0  0  0  0  0  0  0  0
   -6.2821    0.6643   -0.3542 H   0  0  0  0  0  0  0  0  0  0  0  0
    0.4779   -2.7383   -2.1934 H   0  0  0  0  0  0  0  0  0  0  0  0
    2.0287   -2.1704   -2.7999 H   0  0  0  0  0  0  0  0  0  0  0  0
   -4.9404   -0.8610   -1.7784 H   0  0  0  0  0  0  0  0  0  0  0  0
   -6.0338    0.5877    2.1111 H   0  0  0  0  0  0  0  0  0  0  0  0
   -3.3079   -2.4100   -0.7550 H   0  0  0  0  0  0  0  0  0  0  0  0
   -4.4121   -0.9507    3.1531 H   0  0  0  0  0  0  0  0  0  0  0  0
   -0.6983    0.8686   -3.8820 H   0  0  0  0  0  0  0  0  0  0  0  0
   -1.0639    0.1042   -2.3354 H   0  0  0  0  0  0  0  0  0  0  0  0
   -0.4376   -1.6356   -3.9869 H   0  0  0  0  0  0  0  0  0  0  0  0
    1.0677   -0.8017   -4.3267 H   0  0  0  0  0  0  0  0  0  0  0  0
  2  1  2  0  0  0  0
  3  2  1  0  0  0  0
  4  1  1  0  0  0  0
  5  4  2  0  0  0  0
  5  3  1  0  0  0  0
  6  1  1  0  0  0  0
  7  3  1  0  0  0  0
  7 25  1  0  0  0  0
  7 26  1  0  0  0  0
  8  7  1  0  0  0  0
  9  8  1  0  0  0  0
  9 27  1  0  0  0  0
 10  8  2  0  0  0  0
 11  6  1  0  0  0  0
 12  6  1  0  0  0  0
 13  6  1  0  0  0  0
 14  4  1  0  0  0  0
 14 28  1  0  0  0  0
 14 29  1  0  0  0  0
 15  9  1  0  0  0  0
 15 30  1  0  0  0  0
 15 31  1  0  0  0  0
 16 20  2  0  0  0  0
 16 32  1  0  0  0  0
 17 15  1  0  0  0  0
 18  5  1  0  0  0  0
 18 24  1  0  0  0  0
 18 33  1  0  0  0  0
 18 34  1  0  0  0  0
 19 21  2  0  0  0  0
 19 16  1  0  0  0  0
 19 35  1  0  0  0  0
 20 22  1  0  0  0  0
 20 36  1  0  0  0  0
 21 17  1  0  0  0  0
 21 37  1  0  0  0  0
 22 17  2  0  0  0  0
 22 38  1  0  0  0  0
 23 14  1  0  0  0  0
 23 39  1  0  0  0  0
 23 40  1  0  0  0  0
 24 23  1  0  0  0  0
 24 41  1  0  0  0  0
 24 42  1  0  0  0  0
M  END
>  <Mol_ID>
8856

>  <Formula>
C17H17ClF3N3O

>  <MolWeight>
371.7845896

>  <Cat>
P2434

>  <Name>
WAY-325908

>  <Synonyms>
N/A

>  <Target>
Trypanothione synthetase

>  <Form>
free base

>  <CAS>
868970-87-0

>  <URL>
N/A

$$$$
