WAY-332029
 OpenBabel08302521443D

 49 52  0  0  0  0  0  0  0  0999 V2000
   -2.1744    3.1306    2.2415 C   0  0  0  0  0  0  0  0  0  0  0  0
   -1.7409    2.9335    1.0101 N   0  0  0  0  0  0  0  0  0  0  0  0
   -0.3680    2.8525    1.1254 C   0  0  0  0  0  0  0  0  0  0  0  0
   -1.1651    3.2041    3.1689 O   0  0  0  0  0  0  0  0  0  0  0  0
   -3.5376    3.2706    2.7439 C   0  0  0  0  0  0  0  0  0  0  0  0
   -0.0180    3.0191    2.4492 C   0  0  0  0  0  0  0  0  0  0  0  0
   -0.0905    3.3019   -1.5927 S   0  0  3  0  0  0  0  0  0  0  0  0
    0.5075    2.5757   -0.0430 C   0  0  0  0  0  0  0  0  0  0  0  0
   -0.1406    5.0594   -1.1483 C   0  0  0  0  0  0  0  0  0  0  0  0
    1.1883    5.6846   -0.7850 C   0  0  0  0  0  0  0  0  0  0  0  0
    0.0481   10.5041    1.3113 C   0  0  0  0  0  0  0  0  0  0  0  0
   -1.1536   10.1045    1.8448 C   0  0  0  0  0  0  0  0  0  0  0  0
    0.5870   11.5565    1.9848 O   0  0  0  0  0  0  0  0  0  0  0  0
   -4.6291    3.2051    1.8708 C   0  0  0  0  0  0  0  0  0  0  0  0
   -1.5196   10.8488    2.9219 O   0  0  0  0  0  0  0  0  0  0  0  0
   -0.4210   11.7804    2.9932 C   0  0  0  0  0  0  0  0  0  0  0  0
    1.4085    7.0062   -1.0538 N   0  0  0  0  0  0  0  0  0  0  0  0
    0.9410    3.0983   -2.6639 O   0  0  0  0  0  0  0  0  0  0  0  0
    0.6063    9.8716    0.2194 C   0  0  0  0  0  0  0  0  0  0  0  0
    2.0828    5.0810   -0.1903 O   0  0  0  0  0  0  0  0  0  0  0  0
   -1.8697    9.0575    1.3087 C   0  0  0  0  0  0  0  0  0  0  0  0
   -0.0915    8.7925   -0.3537 C   0  0  0  0  0  0  0  0  0  0  0  0
    0.4993    8.0332   -1.5159 C   0  0  0  0  0  0  0  0  0  0  0  0
   -4.4499    3.0199    0.5540 F   0  0  0  0  0  0  0  0  0  0  0  0
   -1.3318    8.3983    0.1983 C   0  0  0  0  0  0  0  0  0  0  0  0
   -3.8034    3.4666    4.1106 C   0  0  0  0  0  0  0  0  0  0  0  0
    1.2482    3.0169    3.2025 C   0  0  0  0  0  0  0  0  0  0  0  0
   -5.9407    3.3315    2.3314 C   0  0  0  0  0  0  0  0  0  0  0  0
   -5.1172    3.5942    4.5782 C   0  0  0  0  0  0  0  0  0  0  0  0
   -6.1861    3.5273    3.6877 C   0  0  0  0  0  0  0  0  0  0  0  0
    1.5398    2.8741    0.1396 H   0  0  0  0  0  0  0  0  0  0  0  0
    0.5287    1.4917   -0.2038 H   0  0  0  0  0  0  0  0  0  0  0  0
   -0.5519    5.5466   -2.0352 H   0  0  0  0  0  0  0  0  0  0  0  0
   -0.8433    5.2086   -0.3258 H   0  0  0  0  0  0  0  0  0  0  0  0
    0.0461   11.7001    3.9816 H   0  0  0  0  0  0  0  0  0  0  0  0
   -0.8174   12.7958    2.8743 H   0  0  0  0  0  0  0  0  0  0  0  0
    2.3117    7.3174   -0.7114 H   0  0  0  0  0  0  0  0  0  0  0  0
    1.5599   10.2076   -0.1734 H   0  0  0  0  0  0  0  0  0  0  0  0
   -2.8185    8.7536    1.7375 H   0  0  0  0  0  0  0  0  0  0  0  0
    1.0796    8.7163   -2.1475 H   0  0  0  0  0  0  0  0  0  0  0  0
   -0.2891    7.6123   -2.1439 H   0  0  0  0  0  0  0  0  0  0  0  0
   -1.8874    7.5699   -0.2368 H   0  0  0  0  0  0  0  0  0  0  0  0
   -2.9877    3.5204    4.8298 H   0  0  0  0  0  0  0  0  0  0  0  0
    1.3965    3.9763    3.7074 H   0  0  0  0  0  0  0  0  0  0  0  0
    1.2401    2.2265    3.9598 H   0  0  0  0  0  0  0  0  0  0  0  0
    2.1041    2.8433    2.5440 H   0  0  0  0  0  0  0  0  0  0  0  0
   -6.7615    3.2741    1.6226 H   0  0  0  0  0  0  0  0  0  0  0  0
   -5.3030    3.7441    5.6399 H   0  0  0  0  0  0  0  0  0  0  0  0
   -7.2068    3.6254    4.0492 H   0  0  0  0  0  0  0  0  0  0  0  0
  2  1  2  0  0  0  0
  3  2  1  0  0  0  0
  4  1  1  0  0  0  0
  5  1  1  0  0  0  0
  6  4  1  0  0  0  0
  6  3  2  0  0  0  0
  7  8  1  0  0  0  0
  8  3  1  0  0  0  0
  8 31  1  0  0  0  0
  8 32  1  0  0  0  0
  9  7  1  0  0  0  0
  9 33  1  0  0  0  0
  9 34  1  0  0  0  0
 10  9  1  0  0  0  0
 11 19  2  0  0  0  0
 12 21  2  0  0  0  0
 12 11  1  0  0  0  0
 13 11  1  0  0  0  0
 14  5  2  0  0  0  0
 15 12  1  0  0  0  0
 16 13  1  0  0  0  0
 16 15  1  0  0  0  0
 16 35  1  0  0  0  0
 16 36  1  0  0  0  0
 17 10  1  0  0  0  0
 17 37  1  0  0  0  0
 18  7  2  0  0  0  0
 19 22  1  0  0  0  0
 19 38  1  0  0  0  0
 20 10  2  0  0  0  0
 21 25  1  0  0  0  0
 21 39  1  0  0  0  0
 22 23  1  0  0  0  0
 23 17  1  0  0  0  0
 23 40  1  0  0  0  0
 23 41  1  0  0  0  0
 24 14  1  0  0  0  0
 25 22  2  0  0  0  0
 25 42  1  0  0  0  0
 26  5  1  0  0  0  0
 26 43  1  0  0  0  0
 27  6  1  0  0  0  0
 27 44  1  0  0  0  0
 27 45  1  0  0  0  0
 27 46  1  0  0  0  0
 28 14  1  0  0  0  0
 28 30  2  0  0  0  0
 28 47  1  0  0  0  0
 29 26  2  0  0  0  0
 29 48  1  0  0  0  0
 30 29  1  0  0  0  0
 30 49  1  0  0  0  0
M  END
>  <Mol_ID>
9249

>  <Formula>
C21H19FN2O5S

>  <MolWeight>
430.4493632

>  <Cat>
P2677

>  <Name>
WAY-332029

>  <Synonyms>
N/A

>  <Target>
beta-catenin

>  <Form>
free base

>  <CAS>
958844-53-6

>  <URL>
N/A

$$$$
