WAY-621001
 OpenBabel08302521443D

 58 62  0  0  0  0  0  0  0  0999 V2000
    1.2941   -0.0825    0.2077 S   0  0  0  0  0  0  0  0  0  0  0  0
    0.7500   -1.5723    1.0296 C   0  0  0  0  0  0  0  0  0  0  0  0
    2.8814   -7.8488    0.0056 C   0  0  0  0  0  0  0  0  0  0  0  0
   -0.0521    0.8025   -0.2284 N   0  0  0  0  0  0  0  0  0  0  0  0
    3.1754   -8.3154    1.3503 C   0  0  0  0  0  0  0  0  0  0  0  0
    1.6056   -8.3171   -0.2471 C   0  0  0  0  0  0  0  0  0  0  0  0
    0.9455   -8.3165    0.9515 O   0  0  0  0  0  0  0  0  0  0  0  0
    1.0237   -2.7810    0.3558 C   0  0  0  0  0  0  0  0  0  0  0  0
    2.1790   -5.4076   -0.6501 C   0  0  0  0  0  0  0  0  0  0  0  0
    4.0040   -9.2234    2.1096 C   0  0  0  0  0  0  0  0  0  0  0  0
    1.9144   -0.4727   -1.0429 O   0  0  0  0  0  0  0  0  0  0  0  0
    2.0717    0.7110    1.1607 O   0  0  0  0  0  0  0  0  0  0  0  0
    1.9021   -8.2814    1.9174 C   0  0  0  0  0  0  0  0  0  0  0  0
    3.2856   -6.5243   -0.6558 C   0  0  0  0  0  0  0  0  0  0  0  0
    0.2609   -1.6055    2.3426 C   0  0  0  0  0  0  0  0  0  0  0  0
    1.4866   -5.2068    0.5381 N   0  0  0  0  0  0  0  0  0  0  0  0
    0.8628   -4.0139    0.9886 C   0  0  0  0  0  0  0  0  0  0  0  0
    2.0013   -4.7191   -1.6566 O   0  0  0  0  0  0  0  0  0  0  0  0
    3.9871   -8.9889    3.4933 C   0  0  0  0  0  0  0  0  0  0  0  0
    1.6746   -8.3010    3.2828 C   0  0  0  0  0  0  0  0  0  0  0  0
   -2.7652    1.0052    0.6248 O   0  0  0  0  0  0  0  0  0  0  0  0
    2.8020   -8.5331    4.0724 C   0  0  0  0  0  0  0  0  0  0  0  0
   -0.1357   -2.8431    2.8688 C   0  0  0  0  0  0  0  0  0  0  0  0
   -1.1353    0.1979   -1.0285 C   0  0  0  0  0  0  0  0  0  0  0  0
   -0.5098    1.9629    0.5618 C   0  0  0  0  0  0  0  0  0  0  0  0
    0.1919   -4.0381    2.2128 C   0  0  0  0  0  0  0  0  0  0  0  0
    0.2034   -0.4518    3.0766 O   0  0  0  0  0  0  0  0  0  0  0  0
   -1.7127    1.5791    1.4158 C   0  0  0  0  0  0  0  0  0  0  0  0
   -2.3058   -0.1507   -0.1001 C   0  0  0  0  0  0  0  0  0  0  0  0
    4.4475  -10.5271    1.7439 C   0  0  0  0  0  0  0  0  0  0  0  0
    4.8520   -9.6806    4.3312 C   0  0  0  0  0  0  0  0  0  0  0  0
    0.1545   -0.5910    4.4994 C   0  0  0  0  0  0  0  0  0  0  0  0
    4.7856  -11.4591    2.7574 C   0  0  0  0  0  0  0  0  0  0  0  0
    4.9838  -11.0327    4.0675 C   0  0  0  0  0  0  0  0  0  0  0  0
    0.9595   -8.2514   -1.1121 H   0  0  0  0  0  0  0  0  0  0  0  0
    1.4674   -2.7391   -0.6339 H   0  0  0  0  0  0  0  0  0  0  0  0
    3.5023   -6.7205   -1.7150 H   0  0  0  0  0  0  0  0  0  0  0  0
    4.1836   -6.0888   -0.2044 H   0  0  0  0  0  0  0  0  0  0  0  0
    1.4599   -5.9827    1.1863 H   0  0  0  0  0  0  0  0  0  0  0  0
    0.6805   -8.2155    3.6956 H   0  0  0  0  0  0  0  0  0  0  0  0
    2.6690   -8.6013    5.1515 H   0  0  0  0  0  0  0  0  0  0  0  0
   -0.6445   -2.9133    3.8280 H   0  0  0  0  0  0  0  0  0  0  0  0
   -1.4627    0.9403   -1.7686 H   0  0  0  0  0  0  0  0  0  0  0  0
   -0.7927   -0.6778   -1.5859 H   0  0  0  0  0  0  0  0  0  0  0  0
   -0.8083    2.7389   -0.1566 H   0  0  0  0  0  0  0  0  0  0  0  0
    0.2948    2.4001    1.1567 H   0  0  0  0  0  0  0  0  0  0  0  0
   -0.0414   -4.9793    2.7070 H   0  0  0  0  0  0  0  0  0  0  0  0
   -1.4398    0.8737    2.1951 H   0  0  0  0  0  0  0  0  0  0  0  0
   -2.1068    2.4718    1.9120 H   0  0  0  0  0  0  0  0  0  0  0  0
   -3.1503   -0.5287   -0.6841 H   0  0  0  0  0  0  0  0  0  0  0  0
   -2.0265   -0.9300    0.6155 H   0  0  0  0  0  0  0  0  0  0  0  0
    4.3042  -10.9033    0.7350 H   0  0  0  0  0  0  0  0  0  0  0  0
    5.8418   -9.2131    4.4820 H   0  0  0  0  0  0  0  0  0  0  0  0
   -0.8854   -0.7031    4.8238 H   0  0  0  0  0  0  0  0  0  0  0  0
    0.7634   -1.4250    4.8693 H   0  0  0  0  0  0  0  0  0  0  0  0
    0.5556    0.3223    4.9500 H   0  0  0  0  0  0  0  0  0  0  0  0
    4.8787  -12.5225    2.5416 H   0  0  0  0  0  0  0  0  0  0  0  0
    5.2884  -11.7087    4.8624 H   0  0  0  0  0  0  0  0  0  0  0  0
  2  1  1  0  0  0  0
  3 14  1  0  0  0  0
  4  1  1  0  0  0  0
  5  3  1  0  0  0  0
  6  3  2  0  0  0  0
  6 35  1  0  0  0  0
  7  6  1  0  0  0  0
  7 13  1  0  0  0  0
  8  2  2  0  0  0  0
  8 36  1  0  0  0  0
  9 16  1  0  0  0  0
 10  5  1  0  0  0  0
 11  1  2  0  0  0  0
 12  1  2  0  0  0  0
 13  5  2  0  0  0  0
 14  9  1  0  0  0  0
 14 37  1  0  0  0  0
 14 38  1  0  0  0  0
 15  2  1  0  0  0  0
 16 17  1  0  0  0  0
 16 39  1  0  0  0  0
 17  8  1  0  0  0  0
 18  9  2  0  0  0  0
 19 10  2  0  0  0  0
 20 13  1  0  0  0  0
 20 40  1  0  0  0  0
 21 28  1  0  0  0  0
 22 20  2  0  0  0  0
 22 19  1  0  0  0  0
 22 41  1  0  0  0  0
 23 15  2  0  0  0  0
 23 42  1  0  0  0  0
 24  4  1  0  0  0  0
 24 43  1  0  0  0  0
 24 44  1  0  0  0  0
 25  4  1  0  0  0  0
 25 45  1  0  0  0  0
 25 46  1  0  0  0  0
 26 23  1  0  0  0  0
 26 17  2  0  0  0  0
 26 47  1  0  0  0  0
 27 15  1  0  0  0  0
 28 25  1  0  0  0  0
 28 48  1  0  0  0  0
 28 49  1  0  0  0  0
 29 24  1  0  0  0  0
 29 21  1  0  0  0  0
 29 50  1  0  0  0  0
 29 51  1  0  0  0  0
 30 10  1  0  0  0  0
 30 52  1  0  0  0  0
 31 19  1  0  0  0  0
 31 34  2  0  0  0  0
 31 53  1  0  0  0  0
 32 27  1  0  0  0  0
 32 54  1  0  0  0  0
 32 55  1  0  0  0  0
 32 56  1  0  0  0  0
 33 30  2  0  0  0  0
 33 57  1  0  0  0  0
 34 33  1  0  0  0  0
 34 58  1  0  0  0  0
M  END
>  <Mol_ID>
9039

>  <Formula>
C25H24N2O6S

>  <MolWeight>
480.53286

>  <Cat>
P2960

>  <Name>
WAY-621001

>  <Synonyms>
N/A

>  <Target>
acid sphingomyelinase

>  <Form>
free base

>  <CAS>
736950-91-7

>  <URL>
N/A

$$$$
