WAY-324108
 OpenBabel08302521423D

 39 41  0  0  0  0  0  0  0  0999 V2000
   -3.4582   -0.2122   -0.3483 C   0  0  0  0  0  0  0  0  0  0  0  0
   -3.0735    1.0942   -0.3063 O   0  0  0  0  0  0  0  0  0  0  0  0
   -1.3626    1.5758   -2.0400 C   0  0  0  0  0  0  0  0  0  0  0  0
   -1.7057    1.4617   -0.5402 C   0  0  3  0  0  0  0  0  0  0  0  0
   -2.3840   -1.2298   -0.4882 C   0  0  0  0  0  0  0  0  0  0  0  0
   -1.0522   -0.8851   -0.2296 C   0  0  0  0  0  0  0  0  0  0  0  0
   -2.1394    2.5048   -2.7183 N   0  0  0  0  0  0  0  0  0  0  0  0
   -0.7479    0.5224    0.1917 C   0  0  0  0  0  0  0  0  0  0  0  0
   -0.9276    2.6452   -6.2792 C   0  0  0  0  0  0  0  0  0  0  0  0
   -4.6356   -0.5353   -0.2692 O   0  0  0  0  0  0  0  0  0  0  0  0
   -1.9514    2.9000   -4.0644 C   0  0  0  0  0  0  0  0  0  0  0  0
   -0.4267    0.9430   -2.5234 O   0  0  0  0  0  0  0  0  0  0  0  0
   -1.1702    2.1810   -4.9731 C   0  0  0  0  0  0  0  0  0  0  0  0
   -1.5054    3.8549   -6.6924 C   0  0  0  0  0  0  0  0  0  0  0  0
   -2.3258    4.5564   -5.7923 C   0  0  0  0  0  0  0  0  0  0  0  0
   -2.5543    4.0819   -4.4957 C   0  0  0  0  0  0  0  0  0  0  0  0
   -0.0419   -1.8377   -0.3993 C   0  0  0  0  0  0  0  0  0  0  0  0
   -2.7066   -2.5295   -0.8923 C   0  0  0  0  0  0  0  0  0  0  0  0
   -0.0435    1.8233   -7.1764 C   0  0  0  0  0  0  0  0  0  0  0  0
   -1.2775    4.4446   -8.0573 C   0  0  0  0  0  0  0  0  0  0  0  0
   -0.3640   -3.1247   -0.8315 C   0  0  0  0  0  0  0  0  0  0  0  0
   -1.6936   -3.4730   -1.0713 C   0  0  0  0  0  0  0  0  0  0  0  0
   -1.5761    2.4661   -0.1182 H   0  0  0  0  0  0  0  0  0  0  0  0
   -2.8150    3.0295   -2.1769 H   0  0  0  0  0  0  0  0  0  0  0  0
    0.2933    0.7842   -0.0293 H   0  0  0  0  0  0  0  0  0  0  0  0
   -0.8963    0.5943    1.2754 H   0  0  0  0  0  0  0  0  0  0  0  0
   -0.7348    1.2275   -4.6890 H   0  0  0  0  0  0  0  0  0  0  0  0
   -2.7811    5.4979   -6.0979 H   0  0  0  0  0  0  0  0  0  0  0  0
   -3.1775    4.6705   -3.8284 H   0  0  0  0  0  0  0  0  0  0  0  0
    1.0006   -1.5748   -0.2333 H   0  0  0  0  0  0  0  0  0  0  0  0
   -3.7413   -2.8045   -1.0855 H   0  0  0  0  0  0  0  0  0  0  0  0
   -0.5932    1.4994   -8.0639 H   0  0  0  0  0  0  0  0  0  0  0  0
    0.8365    2.4020   -7.4728 H   0  0  0  0  0  0  0  0  0  0  0  0
    0.3203    0.9211   -6.6694 H   0  0  0  0  0  0  0  0  0  0  0  0
   -2.2329    4.5658   -8.5771 H   0  0  0  0  0  0  0  0  0  0  0  0
   -0.7926    5.4221   -7.9641 H   0  0  0  0  0  0  0  0  0  0  0  0
   -0.6383    3.8228   -8.6894 H   0  0  0  0  0  0  0  0  0  0  0  0
    0.4257   -3.8551   -0.9926 H   0  0  0  0  0  0  0  0  0  0  0  0
   -1.9396   -4.4767   -1.4092 H   0  0  0  0  0  0  0  0  0  0  0  0
  2  1  1  0  0  0  0
  3  4  1  0  0  0  0
  4  2  1  0  0  0  0
  4 23  1  0  0  0  0
  5  1  1  0  0  0  0
  6  5  2  0  0  0  0
  7  3  1  0  0  0  0
  7 24  1  0  0  0  0
  8  6  1  0  0  0  0
  8  4  1  0  0  0  0
  8 25  1  0  0  0  0
  8 26  1  0  0  0  0
  9 13  2  0  0  0  0
 10  1  2  0  0  0  0
 11  7  1  0  0  0  0
 12  3  2  0  0  0  0
 13 11  1  0  0  0  0
 13 27  1  0  0  0  0
 14 15  2  0  0  0  0
 14  9  1  0  0  0  0
 15 16  1  0  0  0  0
 15 28  1  0  0  0  0
 16 11  2  0  0  0  0
 16 29  1  0  0  0  0
 17  6  1  0  0  0  0
 17 30  1  0  0  0  0
 18  5  1  0  0  0  0
 18 31  1  0  0  0  0
 19  9  1  0  0  0  0
 19 32  1  0  0  0  0
 19 33  1  0  0  0  0
 19 34  1  0  0  0  0
 20 14  1  0  0  0  0
 20 35  1  0  0  0  0
 20 36  1  0  0  0  0
 20 37  1  0  0  0  0
 21 22  1  0  0  0  0
 21 17  2  0  0  0  0
 21 38  1  0  0  0  0
 22 18  2  0  0  0  0
 22 39  1  0  0  0  0
M  END
>  <Mol_ID>
8608

>  <Formula>
C18H17NO3

>  <MolWeight>
295.33248

>  <Cat>
P2303

>  <Name>
WAY-324108

>  <Synonyms>
N/A

>  <Target>
Androgen Receptor

>  <Form>
free base

>  <CAS>
1351474-93-5

>  <URL>
N/A

$$$$
