WAY-321740
 OpenBabel08302521413D

 54 56  0  0  0  0  0  0  0  0999 V2000
    2.1660   -0.6110   -1.4213 C   0  0  0  0  0  0  0  0  0  0  0  0
    1.7309    0.7091   -1.1984 C   0  0  0  0  0  0  0  0  0  0  0  0
    0.2752    0.7243   -0.9887 C   0  0  0  0  0  0  0  0  0  0  0  0
   -0.2408   -0.5491   -1.0870 C   0  0  0  0  0  0  0  0  0  0  0  0
    0.8342   -1.6141   -1.7966 S   0  0  0  0  0  0  0  0  0  0  0  0
    3.4519   -1.1886   -1.4339 N   0  0  0  0  0  0  0  0  0  0  0  0
    2.6404    1.8586   -1.0860 C   0  0  0  0  0  0  0  0  0  0  0  0
    3.6823   -2.5716   -1.4272 C   0  0  0  0  0  0  0  0  0  0  0  0
   -0.6345    1.8787   -0.6511 C   0  0  0  0  0  0  0  0  0  0  0  0
    6.5305   -5.1717   -1.8704 N   0  0  0  0  0  0  0  0  0  0  0  0
    5.1385   -3.0323   -1.3143 C   0  0  0  0  0  0  0  0  0  0  0  0
   -1.5991   -0.9926   -0.6777 C   0  0  0  0  0  0  0  0  0  0  0  0
    3.8649    1.7345   -1.0650 O   0  0  0  0  0  0  0  0  0  0  0  0
    2.8129   -3.4476   -1.4486 O   0  0  0  0  0  0  0  0  0  0  0  0
    5.2155   -4.5028   -1.8171 C   0  0  0  0  0  0  0  0  0  0  0  0
    6.6133   -7.7519   -0.4051 O   0  0  0  0  0  0  0  0  0  0  0  0
    1.9985    3.0727   -1.0088 O   0  0  0  0  0  0  0  0  0  0  0  0
   -2.0436    1.4335   -0.1767 C   0  0  0  0  0  0  0  0  0  0  0  0
   -2.5980    0.1537   -0.8436 C   0  0  3  0  0  0  0  0  0  0  0  0
    6.3895   -6.5197   -2.4959 C   0  0  0  0  0  0  0  0  0  0  0  0
    7.2032   -5.3527   -0.5663 C   0  0  0  0  0  0  0  0  0  0  0  0
    5.7899   -7.5898   -1.5639 C   0  0  0  0  0  0  0  0  0  0  0  0
    6.6998   -6.5168    0.3148 C   0  0  0  0  0  0  0  0  0  0  0  0
    2.8548    4.2101   -0.7996 C   0  0  0  0  0  0  0  0  0  0  0  0
   -2.9621    0.3519   -2.3165 C   0  0  0  0  0  0  0  0  0  0  0  0
    2.0362    5.4925   -0.7194 C   0  0  0  0  0  0  0  0  0  0  0  0
    4.2279   -0.5502   -1.2747 H   0  0  0  0  0  0  0  0  0  0  0  0
   -0.7450    2.5119   -1.5380 H   0  0  0  0  0  0  0  0  0  0  0  0
   -0.1920    2.4937    0.1408 H   0  0  0  0  0  0  0  0  0  0  0  0
    5.7949   -2.3786   -1.8935 H   0  0  0  0  0  0  0  0  0  0  0  0
    5.4104   -2.9802   -0.2548 H   0  0  0  0  0  0  0  0  0  0  0  0
   -1.5443   -1.2727    0.3836 H   0  0  0  0  0  0  0  0  0  0  0  0
   -1.9257   -1.8864   -1.2219 H   0  0  0  0  0  0  0  0  0  0  0  0
    4.5117   -5.1181   -1.2447 H   0  0  0  0  0  0  0  0  0  0  0  0
    4.8348   -4.4809   -2.8492 H   0  0  0  0  0  0  0  0  0  0  0  0
   -2.7524    2.2605   -0.3040 H   0  0  0  0  0  0  0  0  0  0  0  0
   -1.9884    1.2442    0.9043 H   0  0  0  0  0  0  0  0  0  0  0  0
   -3.5176   -0.1390   -0.3201 H   0  0  0  0  0  0  0  0  0  0  0  0
    7.3944   -6.8504   -2.7896 H   0  0  0  0  0  0  0  0  0  0  0  0
    5.8043   -6.4602   -3.4209 H   0  0  0  0  0  0  0  0  0  0  0  0
    8.2574   -5.5598   -0.7964 H   0  0  0  0  0  0  0  0  0  0  0  0
    7.2065   -4.4236    0.0116 H   0  0  0  0  0  0  0  0  0  0  0  0
    4.7679   -7.3472   -1.2509 H   0  0  0  0  0  0  0  0  0  0  0  0
    5.7478   -8.5555   -2.0787 H   0  0  0  0  0  0  0  0  0  0  0  0
    7.4086   -6.6810    1.1345 H   0  0  0  0  0  0  0  0  0  0  0  0
    5.7245   -6.2938    0.7595 H   0  0  0  0  0  0  0  0  0  0  0  0
    3.3923    4.0767    0.1460 H   0  0  0  0  0  0  0  0  0  0  0  0
    3.5736    4.2950   -1.6225 H   0  0  0  0  0  0  0  0  0  0  0  0
   -2.1583    0.8291   -2.8848 H   0  0  0  0  0  0  0  0  0  0  0  0
   -3.1811   -0.6107   -2.7942 H   0  0  0  0  0  0  0  0  0  0  0  0
   -3.8576    0.9738   -2.4062 H   0  0  0  0  0  0  0  0  0  0  0  0
    1.6081    5.7478   -1.6951 H   0  0  0  0  0  0  0  0  0  0  0  0
    1.2014    5.3948   -0.0176 H   0  0  0  0  0  0  0  0  0  0  0  0
    2.6646    6.3313   -0.3990 H   0  0  0  0  0  0  0  0  0  0  0  0
  2  1  2  0  0  0  0
  3  2  1  0  0  0  0
  4  5  1  0  0  0  0
  4  3  2  0  0  0  0
  5  1  1  0  0  0  0
  6  1  1  0  0  0  0
  6 27  1  0  0  0  0
  7  2  1  0  0  0  0
  8  6  1  0  0  0  0
  9  3  1  0  0  0  0
  9 28  1  0  0  0  0
  9 29  1  0  0  0  0
 10 15  1  0  0  0  0
 11  8  1  0  0  0  0
 11 30  1  0  0  0  0
 11 31  1  0  0  0  0
 12  4  1  0  0  0  0
 12 32  1  0  0  0  0
 12 33  1  0  0  0  0
 13  7  2  0  0  0  0
 14  8  2  0  0  0  0
 15 11  1  0  0  0  0
 15 34  1  0  0  0  0
 15 35  1  0  0  0  0
 16 23  1  0  0  0  0
 17  7  1  0  0  0  0
 18  9  1  0  0  0  0
 18 36  1  0  0  0  0
 18 37  1  0  0  0  0
 19 12  1  0  0  0  0
 19 18  1  0  0  0  0
 19 38  1  0  0  0  0
 20 10  1  0  0  0  0
 20 39  1  0  0  0  0
 20 40  1  0  0  0  0
 21 10  1  0  0  0  0
 21 41  1  0  0  0  0
 21 42  1  0  0  0  0
 22 20  1  0  0  0  0
 22 16  1  0  0  0  0
 22 43  1  0  0  0  0
 22 44  1  0  0  0  0
 23 21  1  0  0  0  0
 23 45  1  0  0  0  0
 23 46  1  0  0  0  0
 24 17  1  0  0  0  0
 24 47  1  0  0  0  0
 24 48  1  0  0  0  0
 25 19  1  0  0  0  0
 25 49  1  0  0  0  0
 25 50  1  0  0  0  0
 25 51  1  0  0  0  0
 26 24  1  0  0  0  0
 26 52  1  0  0  0  0
 26 53  1  0  0  0  0
 26 54  1  0  0  0  0
M  END
>  <Mol_ID>
8444

>  <Formula>
C19H28N2O4S

>  <MolWeight>
380.50162

>  <Cat>
P2249

>  <Name>
WAY-321740

>  <Synonyms>
N/A

>  <Target>
Anti-infection

>  <Form>
free base

>  <CAS>
315676-80-3

>  <URL>
N/A

$$$$
