WAY-656903
 OpenBabel08302521423D

 44 47  0  0  0  0  0  0  0  0999 V2000
    0.2111   -0.7162    0.1103 C   0  0  0  0  0  0  0  0  0  0  0  0
    0.0485    0.6506    0.0283 C   0  0  0  0  0  0  0  0  0  0  0  0
   -1.0125   -1.5089    0.2096 C   0  0  0  0  0  0  0  0  0  0  0  0
   -2.1914   -0.7741    0.0698 N   0  0  0  0  0  0  0  0  0  0  0  0
    1.6082   -1.1234    0.0627 C   0  0  0  0  0  0  0  0  0  0  0  0
   -1.1195    1.3411   -0.0366 N   0  0  0  0  0  0  0  0  0  0  0  0
    1.5303    1.4672   -0.0037 S   0  0  0  0  0  0  0  0  0  0  0  0
    2.4335    0.0066    0.0038 C   0  0  0  0  0  0  0  0  0  0  0  0
   -2.1788    0.5995   -0.0482 C   0  0  0  0  0  0  0  0  0  0  0  0
   -3.6814   -1.9209   -1.4662 C   0  0  0  0  0  0  0  0  0  0  0  0
   -3.4464   -1.5122   -0.0101 C   0  0  0  0  0  0  0  0  0  0  0  0
   -4.3940   -3.0780   -1.7140 N   0  0  0  0  0  0  0  0  0  0  0  0
   -1.0314   -2.7215    0.4062 O   0  0  0  0  0  0  0  0  0  0  0  0
    2.1451   -2.4998    0.0234 C   0  0  0  0  0  0  0  0  0  0  0  0
   -3.2699   -1.2222   -2.3948 O   0  0  0  0  0  0  0  0  0  0  0  0
    3.9260    0.1334   -0.0751 C   0  0  0  0  0  0  0  0  0  0  0  0
   -5.0206   -3.9820   -0.7670 C   0  0  0  0  0  0  0  0  0  0  0  0
   -4.5168   -3.5836   -3.0729 C   0  0  0  0  0  0  0  0  0  0  0  0
    1.4957   -3.5016   -0.7134 C   0  0  0  0  0  0  0  0  0  0  0  0
    3.3055   -2.8645    0.7212 C   0  0  0  0  0  0  0  0  0  0  0  0
   -5.1479   -4.9657   -2.9362 C   0  0  0  0  0  0  0  0  0  0  0  0
   -4.9548   -5.3265   -1.4683 C   0  0  0  0  0  0  0  0  0  0  0  0
    3.8103   -4.1679    0.6681 C   0  0  0  0  0  0  0  0  0  0  0  0
    1.9560   -4.8238   -0.7088 C   0  0  0  0  0  0  0  0  0  0  0  0
    3.1233   -5.1538   -0.0301 C   0  0  0  0  0  0  0  0  0  0  0  0
   -3.1736    1.0607   -0.1379 H   0  0  0  0  0  0  0  0  0  0  0  0
   -3.3830   -2.3791    0.6467 H   0  0  0  0  0  0  0  0  0  0  0  0
   -4.2827   -0.8778    0.3098 H   0  0  0  0  0  0  0  0  0  0  0  0
    4.3934   -0.1817    0.8634 H   0  0  0  0  0  0  0  0  0  0  0  0
    4.3235   -0.4701   -0.8957 H   0  0  0  0  0  0  0  0  0  0  0  0
    4.2493    1.1670   -0.2409 H   0  0  0  0  0  0  0  0  0  0  0  0
   -6.0595   -3.6534   -0.6425 H   0  0  0  0  0  0  0  0  0  0  0  0
   -4.5345   -3.9976    0.2075 H   0  0  0  0  0  0  0  0  0  0  0  0
   -3.5226   -3.6311   -3.5289 H   0  0  0  0  0  0  0  0  0  0  0  0
   -5.1426   -2.9067   -3.6618 H   0  0  0  0  0  0  0  0  0  0  0  0
    0.5994   -3.2824   -1.2878 H   0  0  0  0  0  0  0  0  0  0  0  0
    3.8397   -2.1488    1.3367 H   0  0  0  0  0  0  0  0  0  0  0  0
   -4.6844   -5.6966   -3.6078 H   0  0  0  0  0  0  0  0  0  0  0  0
   -6.2159   -4.9201   -3.1754 H   0  0  0  0  0  0  0  0  0  0  0  0
   -3.9632   -5.7720   -1.3240 H   0  0  0  0  0  0  0  0  0  0  0  0
   -5.7049   -6.0326   -1.1017 H   0  0  0  0  0  0  0  0  0  0  0  0
    4.7315   -4.4133    1.1899 H   0  0  0  0  0  0  0  0  0  0  0  0
    1.3949   -5.5920   -1.2349 H   0  0  0  0  0  0  0  0  0  0  0  0
    3.4911   -6.1761   -0.0389 H   0  0  0  0  0  0  0  0  0  0  0  0
  2  1  2  0  0  0  0
  3  1  1  0  0  0  0
  4  3  1  0  0  0  0
  5  1  1  0  0  0  0
  6  2  1  0  0  0  0
  7  2  1  0  0  0  0
  7  8  1  0  0  0  0
  8  5  2  0  0  0  0
  9  4  1  0  0  0  0
  9  6  2  0  0  0  0
  9 26  1  0  0  0  0
 10 11  1  0  0  0  0
 11  4  1  0  0  0  0
 11 27  1  0  0  0  0
 11 28  1  0  0  0  0
 12 10  1  0  0  0  0
 13  3  2  0  0  0  0
 14  5  1  0  0  0  0
 15 10  2  0  0  0  0
 16  8  1  0  0  0  0
 16 29  1  0  0  0  0
 16 30  1  0  0  0  0
 16 31  1  0  0  0  0
 17 12  1  0  0  0  0
 17 32  1  0  0  0  0
 17 33  1  0  0  0  0
 18 12  1  0  0  0  0
 18 34  1  0  0  0  0
 18 35  1  0  0  0  0
 19 14  2  0  0  0  0
 19 36  1  0  0  0  0
 20 14  1  0  0  0  0
 20 37  1  0  0  0  0
 21 18  1  0  0  0  0
 21 38  1  0  0  0  0
 21 39  1  0  0  0  0
 22 17  1  0  0  0  0
 22 21  1  0  0  0  0
 22 40  1  0  0  0  0
 22 41  1  0  0  0  0
 23 20  2  0  0  0  0
 23 42  1  0  0  0  0
 24 19  1  0  0  0  0
 24 43  1  0  0  0  0
 25 23  1  0  0  0  0
 25 24  2  0  0  0  0
 25 44  1  0  0  0  0
M  END
>  <Mol_ID>
8535

>  <Formula>
C19H19N3O2S

>  <MolWeight>
353.43806

>  <Cat>
P3146

>  <Name>
WAY-656903

>  <Synonyms>
N/A

>  <Target>
NMDA receptor

>  <Form>
free base

>  <CAS>
852902-01-3

>  <URL>
N/A

$$$$
