WAY-605632
 OpenBabel08302521413D

 29 30  0  0  0  0  0  0  0  0999 V2000
   -1.1723    2.8175    0.2821 C   0  0  0  0  0  0  0  0  0  0  0  0
   -1.6048    4.4508    0.0779 S   0  0  0  0  0  0  0  0  0  0  0  0
   -2.1888    2.0123    0.5031 N   0  0  0  0  0  0  0  0  0  0  0  0
    0.1145    2.3475    0.2375 N   0  0  0  0  0  0  0  0  0  0  0  0
   -3.3872    2.6899    0.5743 N   0  0  0  0  0  0  0  0  0  0  0  0
    1.2642    3.0702    0.1603 C   0  0  0  0  0  0  0  0  0  0  0  0
   -3.2289    3.9856    0.4001 C   0  0  0  0  0  0  0  0  0  0  0  0
    2.4377    2.3581    0.2162 N   0  0  0  0  0  0  0  0  0  0  0  0
    1.3498    4.2949    0.1305 O   0  0  0  0  0  0  0  0  0  0  0  0
    2.7269    0.9847    0.1112 C   0  0  0  0  0  0  0  0  0  0  0  0
    3.4175   -1.7375    0.0661 C   0  0  0  0  0  0  0  0  0  0  0  0
    1.9085    0.0558   -0.5373 C   0  0  0  0  0  0  0  0  0  0  0  0
    3.9329    0.5442    0.6703 C   0  0  0  0  0  0  0  0  0  0  0  0
    4.2711   -0.8122    0.6597 C   0  0  0  0  0  0  0  0  0  0  0  0
    2.2449   -1.3019   -0.5454 C   0  0  0  0  0  0  0  0  0  0  0  0
   -4.3324    4.9872    0.4785 C   0  0  0  0  0  0  0  0  0  0  0  0
   -4.5248    5.4965    1.8993 C   0  0  0  0  0  0  0  0  0  0  0  0
    0.1791    1.3810    0.5085 H   0  0  0  0  0  0  0  0  0  0  0  0
    3.2184    2.9706    0.4270 H   0  0  0  0  0  0  0  0  0  0  0  0
    3.6733   -2.7944    0.0655 H   0  0  0  0  0  0  0  0  0  0  0  0
    1.0231    0.3572   -1.0897 H   0  0  0  0  0  0  0  0  0  0  0  0
    4.6108    1.2436    1.1531 H   0  0  0  0  0  0  0  0  0  0  0  0
    5.1968   -1.1453    1.1219 H   0  0  0  0  0  0  0  0  0  0  0  0
    1.5937   -2.0189   -1.0403 H   0  0  0  0  0  0  0  0  0  0  0  0
   -4.1441    5.8301   -0.1960 H   0  0  0  0  0  0  0  0  0  0  0  0
   -5.2633    4.5156    0.1410 H   0  0  0  0  0  0  0  0  0  0  0  0
   -4.7689    4.6770    2.5845 H   0  0  0  0  0  0  0  0  0  0  0  0
   -3.6200    5.9873    2.2741 H   0  0  0  0  0  0  0  0  0  0  0  0
   -5.3435    6.2223    1.9349 H   0  0  0  0  0  0  0  0  0  0  0  0
  2  1  1  0  0  0  0
  3  1  2  0  0  0  0
  4  1  1  0  0  0  0
  4 18  1  0  0  0  0
  5  3  1  0  0  0  0
  5  7  2  0  0  0  0
  6  4  1  0  0  0  0
  7  2  1  0  0  0  0
  8  6  1  0  0  0  0
  8 19  1  0  0  0  0
  9  6  2  0  0  0  0
 10  8  1  0  0  0  0
 11 14  2  0  0  0  0
 11 15  1  0  0  0  0
 11 20  1  0  0  0  0
 12 10  1  0  0  0  0
 12 21  1  0  0  0  0
 13 10  2  0  0  0  0
 13 22  1  0  0  0  0
 14 13  1  0  0  0  0
 14 23  1  0  0  0  0
 15 12  2  0  0  0  0
 15 24  1  0  0  0  0
 16  7  1  0  0  0  0
 16 25  1  0  0  0  0
 16 26  1  0  0  0  0
 17 16  1  0  0  0  0
 17 27  1  0  0  0  0
 17 28  1  0  0  0  0
 17 29  1  0  0  0  0
M  END
>  <Mol_ID>
8471

>  <Formula>
C11H11ClN4OS

>  <MolWeight>
282.74924

>  <Cat>
P2854

>  <Name>
WAY-605632

>  <Synonyms>
N/A

>  <Target>
Anti-infection

>  <Form>
free base

>  <CAS>
53532-44-8

>  <URL>
N/A

$$$$
