WAY-326311
 OpenBabel08302521433D

 42 45  0  0  0  0  0  0  0  0999 V2000
   -1.7774   -1.4415   -0.6737 C   0  0  3  0  0  0  0  0  0  0  0  0
   -1.9108   -1.7390   -2.1519 C   0  0  0  0  0  0  0  0  0  0  0  0
   -2.8120   -0.3284   -0.2862 C   0  0  0  0  0  0  0  0  0  0  0  0
   -2.0847    0.8648   -0.1530 N   0  0  0  0  0  0  0  0  0  0  0  0
   -0.4649   -0.7293   -0.4556 C   0  0  0  0  0  0  0  0  0  0  0  0
   -2.3013   -0.8819   -3.2095 C   0  0  0  0  0  0  0  0  0  0  0  0
   -0.7064    0.6273   -0.2128 C   0  0  0  0  0  0  0  0  0  0  0  0
   -2.7905   -1.7973   -4.1375 N   0  0  0  0  0  0  0  0  0  0  0  0
   -1.3330   -2.8446   -2.8946 C   0  0  0  0  0  0  0  0  0  0  0  0
   -1.6835   -2.6281   -4.2319 C   0  0  0  0  0  0  0  0  0  0  0  0
    0.3157    1.5167    0.0107 C   0  0  0  0  0  0  0  0  0  0  0  0
   -4.0169   -0.4617   -0.1196 O   0  0  0  0  0  0  0  0  0  0  0  0
    0.8259   -1.2389   -0.3875 C   0  0  0  0  0  0  0  0  0  0  0  0
   -1.8550   -2.6165    0.1166 O   0  0  0  0  0  0  0  0  0  0  0  0
   -2.7045    2.1483    0.0748 C   0  0  0  0  0  0  0  0  0  0  0  0
   -2.6644    2.5107    1.5195 C   0  0  0  0  0  0  0  0  0  0  0  0
    1.8712   -0.3531   -0.1205 C   0  0  0  0  0  0  0  0  0  0  0  0
   -2.0787    3.6170    1.9925 C   0  0  0  0  0  0  0  0  0  0  0  0
    1.6308    1.0177    0.0568 C   0  0  0  0  0  0  0  0  0  0  0  0
   -1.6583    0.3570   -3.7582 C   0  0  0  0  0  0  0  0  0  0  0  0
    3.6358   -1.0150    0.0469 Br  0  0  0  0  0  0  0  0  0  0  0  0
   -0.4157   -3.8647   -2.6192 C   0  0  0  0  0  0  0  0  0  0  0  0
   -0.9572   -3.0873   -5.3187 C   0  0  0  0  0  0  0  0  0  0  0  0
    0.3449   -4.3466   -3.6951 C   0  0  0  0  0  0  0  0  0  0  0  0
    0.1272   -3.9032   -5.0061 C   0  0  0  0  0  0  0  0  0  0  0  0
   -3.6826   -2.2330   -3.9658 H   0  0  0  0  0  0  0  0  0  0  0  0
    0.1490    2.5733    0.1904 H   0  0  0  0  0  0  0  0  0  0  0  0
    1.0121   -2.3008   -0.5099 H   0  0  0  0  0  0  0  0  0  0  0  0
   -1.5417   -2.3791    1.0027 H   0  0  0  0  0  0  0  0  0  0  0  0
   -2.2163    2.8883   -0.5677 H   0  0  0  0  0  0  0  0  0  0  0  0
   -3.7516    2.0945   -0.2457 H   0  0  0  0  0  0  0  0  0  0  0  0
   -3.1704    1.8367    2.2062 H   0  0  0  0  0  0  0  0  0  0  0  0
   -1.5836    4.3298    1.3388 H   0  0  0  0  0  0  0  0  0  0  0  0
   -2.1007    3.8486    3.0528 H   0  0  0  0  0  0  0  0  0  0  0  0
    2.4569    1.6961    0.2579 H   0  0  0  0  0  0  0  0  0  0  0  0
   -0.5734    0.3130   -3.6066 H   0  0  0  0  0  0  0  0  0  0  0  0
   -1.8074    0.4006   -4.8474 H   0  0  0  0  0  0  0  0  0  0  0  0
   -2.0590    1.2713   -3.3261 H   0  0  0  0  0  0  0  0  0  0  0  0
   -0.1783   -4.1505   -1.6003 H   0  0  0  0  0  0  0  0  0  0  0  0
   -1.1616   -2.7424   -6.3263 H   0  0  0  0  0  0  0  0  0  0  0  0
    1.1680   -5.0279   -3.4966 H   0  0  0  0  0  0  0  0  0  0  0  0
    0.8110   -4.1965   -5.7977 H   0  0  0  0  0  0  0  0  0  0  0  0
  2  1  1  0  0  0  0
  3  1  1  0  0  0  0
  4  3  1  0  0  0  0
  4  7  1  0  0  0  0
  5  1  1  0  0  0  0
  6  2  2  0  0  0  0
  7  5  2  0  0  0  0
  8  6  1  0  0  0  0
  8 10  1  0  0  0  0
  8 26  1  0  0  0  0
  9  2  1  0  0  0  0
 10  9  2  0  0  0  0
 11  7  1  0  0  0  0
 11 19  2  0  0  0  0
 11 27  1  0  0  0  0
 12  3  2  0  0  0  0
 13  5  1  0  0  0  0
 13 28  1  0  0  0  0
 14  1  1  0  0  0  0
 14 29  1  0  0  0  0
 15  4  1  0  0  0  0
 15 30  1  0  0  0  0
 15 31  1  0  0  0  0
 16 15  1  0  0  0  0
 16 32  1  0  0  0  0
 17 13  2  0  0  0  0
 18 16  2  0  0  0  0
 18 33  1  0  0  0  0
 18 34  1  0  0  0  0
 19 17  1  0  0  0  0
 19 35  1  0  0  0  0
 20  6  1  0  0  0  0
 20 36  1  0  0  0  0
 20 37  1  0  0  0  0
 20 38  1  0  0  0  0
 21 17  1  0  0  0  0
 22  9  1  0  0  0  0
 22 39  1  0  0  0  0
 23 10  1  0  0  0  0
 23 25  2  0  0  0  0
 23 40  1  0  0  0  0
 24 22  2  0  0  0  0
 24 41  1  0  0  0  0
 25 24  1  0  0  0  0
 25 42  1  0  0  0  0
M  END
>  <Mol_ID>
8907

>  <Formula>
C20H17BrN2O2

>  <MolWeight>
397.26518

>  <Cat>
P2465

>  <Name>
WAY-326311

>  <Synonyms>
N/A

>  <Target>
Others

>  <Form>
free base

>  <CAS>
869875-84-3

>  <URL>
N/A

$$$$
