WAY-329602
 OpenBabel08302521453D

 33 35  0  0  0  0  0  0  0  0999 V2000
    0.2348    0.0785   -0.0645 S   0  0  0  0  0  0  0  0  0  0  0  0
   -0.9875   -0.9165   -0.8328 C   0  0  0  0  0  0  0  0  0  0  0  0
   -2.2452   -1.1680   -0.2381 C   0  0  0  0  0  0  0  0  0  0  0  0
   -2.6643   -0.8071    0.9842 N   0  0  0  0  0  0  0  0  0  0  0  0
    0.5109   -0.5098    1.5737 C   0  0  0  0  0  0  0  0  0  0  0  0
   -4.2292   -1.3291    1.1389 S   0  0  0  0  0  0  0  0  0  0  0  0
   -3.3072   -1.9183   -1.0074 C   0  0  0  0  0  0  0  0  0  0  0  0
   -4.4547   -2.0694   -0.3270 N   0  0  0  0  0  0  0  0  0  0  0  0
    1.0862   -1.8923    1.6126 C   0  0  0  0  0  0  0  0  0  0  0  0
    1.7884   -2.2992    2.7288 N   0  0  0  0  0  0  0  0  0  0  0  0
    2.0466   -1.5778    3.9107 C   0  0  0  0  0  0  0  0  0  0  0  0
   -0.7913   -1.4171   -2.1396 C   0  0  0  0  0  0  0  0  0  0  0  0
    1.0811   -0.8291    4.5958 C   0  0  0  0  0  0  0  0  0  0  0  0
   -0.3503    1.4055    0.0454 O   0  0  0  0  0  0  0  0  0  0  0  0
    1.4744   -0.0691   -0.8107 O   0  0  0  0  0  0  0  0  0  0  0  0
    1.4232   -0.0156    5.6714 C   0  0  0  0  0  0  0  0  0  0  0  0
   -1.7874   -2.1213   -2.8476 C   0  0  0  0  0  0  0  0  0  0  0  0
   -3.0633   -2.3932   -2.3216 C   0  0  0  0  0  0  0  0  0  0  0  0
    1.0064   -2.6807    0.6699 O   0  0  0  0  0  0  0  0  0  0  0  0
    3.3515   -1.6045    4.4084 C   0  0  0  0  0  0  0  0  0  0  0  0
    2.7512    0.0408    6.0783 C   0  0  0  0  0  0  0  0  0  0  0  0
   -0.2121   -0.9123    4.2544 F   0  0  0  0  0  0  0  0  0  0  0  0
    3.7110   -0.7710    5.4728 C   0  0  0  0  0  0  0  0  0  0  0  0
    3.2641    1.2428    7.4425 Br  0  0  0  0  0  0  0  0  0  0  0  0
    1.2166    0.2039    2.0104 H   0  0  0  0  0  0  0  0  0  0  0  0
   -0.4323   -0.4662    2.1125 H   0  0  0  0  0  0  0  0  0  0  0  0
    2.3672   -3.1105    2.5350 H   0  0  0  0  0  0  0  0  0  0  0  0
    0.1631   -1.2346   -2.6382 H   0  0  0  0  0  0  0  0  0  0  0  0
    0.6527    0.5696    6.1638 H   0  0  0  0  0  0  0  0  0  0  0  0
   -1.5601   -2.4719   -3.8595 H   0  0  0  0  0  0  0  0  0  0  0  0
   -3.8203   -2.9240   -2.8817 H   0  0  0  0  0  0  0  0  0  0  0  0
    4.1196   -2.2067    3.9288 H   0  0  0  0  0  0  0  0  0  0  0  0
    4.7478   -0.7393    5.7999 H   0  0  0  0  0  0  0  0  0  0  0  0
  2  1  1  0  0  0  0
  3  2  1  0  0  0  0
  4  3  2  0  0  0  0
  5  1  1  0  0  0  0
  5 25  1  0  0  0  0
  5 26  1  0  0  0  0
  6  4  1  0  0  0  0
  6  8  1  0  0  0  0
  7  3  1  0  0  0  0
  7 18  1  0  0  0  0
  8  7  2  0  0  0  0
  9  5  1  0  0  0  0
 10  9  1  0  0  0  0
 10 27  1  0  0  0  0
 11 10  1  0  0  0  0
 12  2  2  0  0  0  0
 12 28  1  0  0  0  0
 13 11  2  0  0  0  0
 14  1  2  0  0  0  0
 15  1  2  0  0  0  0
 16 13  1  0  0  0  0
 16 29  1  0  0  0  0
 17 12  1  0  0  0  0
 17 30  1  0  0  0  0
 18 17  2  0  0  0  0
 18 31  1  0  0  0  0
 19  9  2  0  0  0  0
 20 11  1  0  0  0  0
 20 32  1  0  0  0  0
 21 23  1  0  0  0  0
 21 16  2  0  0  0  0
 22 13  1  0  0  0  0
 23 20  2  0  0  0  0
 23 33  1  0  0  0  0
 24 21  1  0  0  0  0
M  END
>  <Mol_ID>
9308

>  <Formula>
C14H9BrFN3O3S2

>  <MolWeight>
430.2719632

>  <Cat>
P2586

>  <Name>
WAY-329602

>  <Synonyms>
N/A

>  <Target>
others

>  <Form>
free base

>  <CAS>
956932-81-3

>  <URL>
N/A

$$$$
