WAY-607930
 OpenBabel08302521443D

 26 27  0  0  0  0  0  0  0  0999 V2000
   -1.4255    0.3759   -0.3057 C   0  0  0  0  0  0  0  0  0  0  0  0
   -1.5353    0.3888   -1.7624 N   0  0  0  0  0  0  0  0  0  0  0  0
   -1.0084   -1.0250    0.1674 C   0  0  0  0  0  0  0  0  0  0  0  0
   -0.4078    1.4319    0.1481 C   0  0  0  0  0  0  0  0  0  0  0  0
   -2.7238    0.0956   -2.3348 C   0  0  0  0  0  0  0  0  0  0  0  0
    0.4311   -1.3801   -0.2113 C   0  0  0  0  0  0  0  0  0  0  0  0
    1.0272    1.0812   -0.2417 C   0  0  0  0  0  0  0  0  0  0  0  0
   -3.9047    0.3207   -1.8000 N   0  0  0  0  0  0  0  0  0  0  0  0
   -2.7637   -0.6402   -3.8937 S   0  0  0  0  0  0  0  0  0  0  0  0
    1.4203   -0.3108    0.2437 C   0  0  0  0  0  0  0  0  0  0  0  0
   -4.9012   -0.0735   -2.6670 C   0  0  0  0  0  0  0  0  0  0  0  0
   -4.4745   -0.6496   -3.8424 C   0  0  0  0  0  0  0  0  0  0  0  0
   -2.3880    0.6314    0.1545 H   0  0  0  0  0  0  0  0  0  0  0  0
   -0.7272    0.0186   -2.2504 H   0  0  0  0  0  0  0  0  0  0  0  0
   -1.1054   -1.0717    1.2594 H   0  0  0  0  0  0  0  0  0  0  0  0
   -1.6866   -1.7825   -0.2429 H   0  0  0  0  0  0  0  0  0  0  0  0
   -0.6678    2.4152   -0.2626 H   0  0  0  0  0  0  0  0  0  0  0  0
   -0.4606    1.5251    1.2416 H   0  0  0  0  0  0  0  0  0  0  0  0
    0.6986   -2.3419    0.2384 H   0  0  0  0  0  0  0  0  0  0  0  0
    0.5131   -1.5120   -1.2971 H   0  0  0  0  0  0  0  0  0  0  0  0
    1.7135    1.8236    0.1819 H   0  0  0  0  0  0  0  0  0  0  0  0
    1.1389    1.1355   -1.3316 H   0  0  0  0  0  0  0  0  0  0  0  0
    1.4736   -0.3112    1.3396 H   0  0  0  0  0  0  0  0  0  0  0  0
    2.4229   -0.5575   -0.1234 H   0  0  0  0  0  0  0  0  0  0  0  0
   -5.9355    0.0801   -2.3863 H   0  0  0  0  0  0  0  0  0  0  0  0
   -5.0656   -1.0477   -4.6525 H   0  0  0  0  0  0  0  0  0  0  0  0
  1  2  1  0  0  0  0
  1  3  1  0  0  0  0
  1  4  1  0  0  0  0
  1 13  1  0  0  0  0
  2  5  1  0  0  0  0
  2 14  1  0  0  0  0
  3  6  1  0  0  0  0
  3 15  1  0  0  0  0
  3 16  1  0  0  0  0
  4  7  1  0  0  0  0
  4 17  1  0  0  0  0
  4 18  1  0  0  0  0
  5  8  2  0  0  0  0
  5  9  1  0  0  0  0
  6 10  1  0  0  0  0
  6 19  1  0  0  0  0
  6 20  1  0  0  0  0
  7 10  1  0  0  0  0
  7 21  1  0  0  0  0
  7 22  1  0  0  0  0
  8 11  1  0  0  0  0
  9 12  1  0  0  0  0
 10 23  1  0  0  0  0
 10 24  1  0  0  0  0
 11 12  2  0  0  0  0
 11 25  1  0  0  0  0
 12 26  1  0  0  0  0
M  END
>  <Mol_ID>
9023

>  <Formula>
C9H14N2S

>  <MolWeight>
182.28586

>  <Cat>
P2903

>  <Name>
WAY-607930

>  <Synonyms>
N/A

>  <Target>
IspE

>  <Form>
free base

>  <CAS>
1438-45-5

>  <URL>
N/A

$$$$
