WAY-640957
 OpenBabel08302521443D

 40 42  0  0  0  0  0  0  0  0999 V2000
    1.0038    0.6424   -0.2102 S   0  0  0  0  0  0  0  0  0  0  0  0
    0.6206    4.1056   -4.1798 C   0  0  0  0  0  0  0  0  0  0  0  0
    6.4577    0.6893    4.3863 N   0  0  0  0  0  0  0  0  0  0  0  0
    0.7883    2.2952   -0.8195 C   0  0  0  0  0  0  0  0  0  0  0  0
    5.7724    0.0581    3.3840 C   0  0  0  0  0  0  0  0  0  0  0  0
    5.5307    0.9736    2.3775 C   0  0  0  0  0  0  0  0  0  0  0  0
    0.5857    3.8210   -2.6972 C   0  0  0  0  0  0  0  0  0  0  0  0
    6.1022    2.2167    2.8021 C   0  0  0  0  0  0  0  0  0  0  0  0
    0.8183    2.5296   -2.2000 C   0  0  0  0  0  0  0  0  0  0  0  0
    0.6218   -0.2655   -1.2695 O   0  0  0  0  0  0  0  0  0  0  0  0
    0.4289    0.5517    1.1124 O   0  0  0  0  0  0  0  0  0  0  0  0
    6.6682    2.0081    4.0605 C   0  0  0  0  0  0  0  0  0  0  0  0
    2.6765    0.5216   -0.0870 N   0  0  0  0  0  0  0  0  0  0  0  0
    0.9282    3.0164   -4.9374 F   0  0  0  0  0  0  0  0  0  0  0  0
   -0.5708    4.5657   -4.6515 F   0  0  0  0  0  0  0  0  0  0  0  0
    1.5427    5.0546   -4.5024 F   0  0  0  0  0  0  0  0  0  0  0  0
    3.3056    0.8939    1.1934 C   0  0  0  0  0  0  0  0  0  0  0  0
    4.8211    0.6994    1.0905 C   0  0  0  0  0  0  0  0  0  0  0  0
    0.5109    3.3315    0.0746 C   0  0  0  0  0  0  0  0  0  0  0  0
    0.3108    4.8586   -1.7899 C   0  0  0  0  0  0  0  0  0  0  0  0
    0.2752    4.6159   -0.4143 C   0  0  0  0  0  0  0  0  0  0  0  0
    6.1951    3.5033    2.2317 C   0  0  0  0  0  0  0  0  0  0  0  0
    7.3164    3.0197    4.7794 C   0  0  0  0  0  0  0  0  0  0  0  0
    6.8413    4.5265    2.9363 C   0  0  0  0  0  0  0  0  0  0  0  0
    7.3907    4.2858    4.1929 C   0  0  0  0  0  0  0  0  0  0  0  0
    6.7718    0.2546    5.2428 H   0  0  0  0  0  0  0  0  0  0  0  0
    5.5199   -0.9908    3.4698 H   0  0  0  0  0  0  0  0  0  0  0  0
    1.0172    1.7074   -2.8870 H   0  0  0  0  0  0  0  0  0  0  0  0
    3.0082   -0.3286   -0.5435 H   0  0  0  0  0  0  0  0  0  0  0  0
    3.0720    1.9365    1.4349 H   0  0  0  0  0  0  0  0  0  0  0  0
    2.9106    0.2541    1.9909 H   0  0  0  0  0  0  0  0  0  0  0  0
    5.0343   -0.3327    0.7812 H   0  0  0  0  0  0  0  0  0  0  0  0
    5.2242    1.3389    0.2957 H   0  0  0  0  0  0  0  0  0  0  0  0
    0.4672    3.1450    1.1459 H   0  0  0  0  0  0  0  0  0  0  0  0
    0.1133    5.8651   -2.1575 H   0  0  0  0  0  0  0  0  0  0  0  0
    0.0528    5.4270    0.2761 H   0  0  0  0  0  0  0  0  0  0  0  0
    5.7761    3.7041    1.2499 H   0  0  0  0  0  0  0  0  0  0  0  0
    7.7493    2.8338    5.7570 H   0  0  0  0  0  0  0  0  0  0  0  0
    6.9154    5.5175    2.4956 H   0  0  0  0  0  0  0  0  0  0  0  0
    7.8887    5.0929    4.7256 H   0  0  0  0  0  0  0  0  0  0  0  0
  2  7  1  0  0  0  0
  3  5  1  0  0  0  0
  3 26  1  0  0  0  0
  4  1  1  0  0  0  0
  5  6  2  0  0  0  0
  5 27  1  0  0  0  0
  6 18  1  0  0  0  0
  7  9  2  0  0  0  0
  8  6  1  0  0  0  0
  9  4  1  0  0  0  0
  9 28  1  0  0  0  0
 10  1  2  0  0  0  0
 11  1  2  0  0  0  0
 12  8  2  0  0  0  0
 12  3  1  0  0  0  0
 13  1  1  0  0  0  0
 13 29  1  0  0  0  0
 14  2  1  0  0  0  0
 15  2  1  0  0  0  0
 16  2  1  0  0  0  0
 17 13  1  0  0  0  0
 17 30  1  0  0  0  0
 17 31  1  0  0  0  0
 18 17  1  0  0  0  0
 18 32  1  0  0  0  0
 18 33  1  0  0  0  0
 19  4  2  0  0  0  0
 19 34  1  0  0  0  0
 20 21  2  0  0  0  0
 20  7  1  0  0  0  0
 20 35  1  0  0  0  0
 21 19  1  0  0  0  0
 21 36  1  0  0  0  0
 22  8  1  0  0  0  0
 22 37  1  0  0  0  0
 23 12  1  0  0  0  0
 23 38  1  0  0  0  0
 24 22  2  0  0  0  0
 24 39  1  0  0  0  0
 25 24  1  0  0  0  0
 25 23  2  0  0  0  0
 25 40  1  0  0  0  0
M  END
>  <Mol_ID>
9111

>  <Formula>
C17H15F3N2O2S

>  <MolWeight>
368.3734096

>  <Cat>
P3119

>  <Name>
WAY-640957

>  <Synonyms>
N/A

>  <Target>
15-lipoxygenase

>  <Form>
free base

>  <CAS>
120823-38-3

>  <URL>
N/A

$$$$
