WAY-300033
 OpenBabel08302521413D

 30 33  0  0  0  0  0  0  0  0999 V2000
   -0.1542   -0.2780   -0.0368 N   0  0  0  0  0  0  0  0  0  0  0  0
   -0.4794    1.0334   -0.0221 C   0  0  0  0  0  0  0  0  0  0  0  0
    1.2090   -0.3775   -0.0213 C   0  0  0  0  0  0  0  0  0  0  0  0
   -1.1741   -1.1999   -0.0625 C   0  0  0  0  0  0  0  0  0  0  0  0
    0.5554    1.8298   -0.0085 N   0  0  0  0  0  0  0  0  0  0  0  0
   -2.1811    1.3041   -0.0281 S   0  0  0  0  0  0  0  0  0  0  0  0
    1.6303    0.9562   -0.0085 C   0  0  0  0  0  0  0  0  0  0  0  0
    2.0859   -1.4663   -0.0137 C   0  0  0  0  0  0  0  0  0  0  0  0
   -2.4551   -0.4302   -0.0479 C   0  0  0  0  0  0  0  0  0  0  0  0
   -0.9530   -2.3950   -0.0907 O   0  0  0  0  0  0  0  0  0  0  0  0
    3.0071    1.2256    0.0030 C   0  0  0  0  0  0  0  0  0  0  0  0
    3.4515   -1.1717    0.0012 C   0  0  0  0  0  0  0  0  0  0  0  0
   -3.6793   -0.9783   -0.0413 C   0  0  0  0  0  0  0  0  0  0  0  0
    3.9065    0.1485    0.0070 C   0  0  0  0  0  0  0  0  0  0  0  0
   -3.9103   -2.4246   -0.0481 C   0  0  0  0  0  0  0  0  0  0  0  0
   -3.9714   -3.1311    1.1584 C   0  0  0  0  0  0  0  0  0  0  0  0
   -3.9891   -3.1189   -1.2605 C   0  0  0  0  0  0  0  0  0  0  0  0
   -4.0974   -4.5214    1.1506 C   0  0  0  0  0  0  0  0  0  0  0  0
   -4.1170   -4.5092   -1.2645 C   0  0  0  0  0  0  0  0  0  0  0  0
   -4.1676   -5.2095   -0.0600 C   0  0  0  0  0  0  0  0  0  0  0  0
    1.7261   -2.4911   -0.0185 H   0  0  0  0  0  0  0  0  0  0  0  0
    3.3639    2.2497    0.0097 H   0  0  0  0  0  0  0  0  0  0  0  0
    4.1692   -1.9904    0.0085 H   0  0  0  0  0  0  0  0  0  0  0  0
   -4.5764   -0.3651   -0.0243 H   0  0  0  0  0  0  0  0  0  0  0  0
    4.9764    0.3451    0.0159 H   0  0  0  0  0  0  0  0  0  0  0  0
   -3.8927   -2.6117    2.1102 H   0  0  0  0  0  0  0  0  0  0  0  0
   -3.9225   -2.5903   -2.2082 H   0  0  0  0  0  0  0  0  0  0  0  0
   -4.1212   -5.0697    2.0887 H   0  0  0  0  0  0  0  0  0  0  0  0
   -4.1570   -5.0480   -2.2075 H   0  0  0  0  0  0  0  0  0  0  0  0
   -4.2483   -6.2935   -0.0648 H   0  0  0  0  0  0  0  0  0  0  0  0
  1  2  1  0  0  0  0
  1  3  1  0  0  0  0
  1  4  1  0  0  0  0
  2  5  2  0  0  0  0
  2  6  1  0  0  0  0
  3  7  2  0  0  0  0
  3  8  1  0  0  0  0
  4  9  1  0  0  0  0
  4 10  2  0  0  0  0
  5  7  1  0  0  0  0
  6  9  1  0  0  0  0
  7 11  1  0  0  0  0
  8 12  2  0  0  0  0
  8 21  1  0  0  0  0
  9 13  2  0  0  0  0
 11 14  2  0  0  0  0
 11 22  1  0  0  0  0
 12 14  1  0  0  0  0
 12 23  1  0  0  0  0
 13 15  1  0  0  0  0
 13 24  1  0  0  0  0
 14 25  1  0  0  0  0
 15 16  2  0  0  0  0
 15 17  1  0  0  0  0
 16 18  1  0  0  0  0
 16 26  1  0  0  0  0
 17 19  2  0  0  0  0
 17 27  1  0  0  0  0
 18 20  2  0  0  0  0
 18 28  1  0  0  0  0
 19 20  1  0  0  0  0
 19 29  1  0  0  0  0
 20 30  1  0  0  0  0
M  END
>  <Mol_ID>
8385

>  <Formula>
C16H9ClN2OS

>  <MolWeight>
312.77346

>  <Cat>
P2129

>  <Name>
WAY-300033

>  <Synonyms>
N/A

>  <Target>
others

>  <Form>
free base

>  <CAS>
23983-05-3

>  <URL>
N/A

$$$$
