WAY-637921
 OpenBabel08302521423D

 41 44  0  0  0  0  0  0  0  0999 V2000
    0.4566   -1.2920   -0.0624 C   0  0  0  0  0  0  0  0  0  0  0  0
    1.5922   -0.6471   -0.0668 N   0  0  0  0  0  0  0  0  0  0  0  0
    0.2267   -2.6381   -0.0492 N   0  0  0  0  0  0  0  0  0  0  0  0
    1.3541    0.7154   -0.0331 C   0  0  0  0  0  0  0  0  0  0  0  0
    1.2188   -3.5348    0.2667 C   0  0  0  0  0  0  0  0  0  0  0  0
   -0.9606   -0.3413   -0.0768 S   0  0  0  0  0  0  0  0  0  0  0  0
    0.0152    1.0684   -0.0037 C   0  0  0  0  0  0  0  0  0  0  0  0
    2.4465    1.6755   -0.0563 C   0  0  0  0  0  0  0  0  0  0  0  0
    3.3906    3.8196    0.5580 C   0  0  0  0  0  0  0  0  0  0  0  0
    2.3507    2.8953    0.6252 C   0  0  0  0  0  0  0  0  0  0  0  0
    4.5479    3.5327   -0.1673 C   0  0  0  0  0  0  0  0  0  0  0  0
    3.2008    4.9924    1.2412 O   0  0  0  0  0  0  0  0  0  0  0  0
    2.3793   -3.2659    0.5589 O   0  0  0  0  0  0  0  0  0  0  0  0
    5.6069    4.3966   -0.2628 O   0  0  0  0  0  0  0  0  0  0  0  0
    3.6123    1.3926   -0.7820 C   0  0  0  0  0  0  0  0  0  0  0  0
    0.7498   -4.9813    0.1813 C   0  0  0  0  0  0  0  0  0  0  0  0
    4.6590    2.3210   -0.8468 C   0  0  0  0  0  0  0  0  0  0  0  0
    4.1305    5.9951    0.8261 C   0  0  0  0  0  0  0  0  0  0  0  0
    5.5363    5.4247    0.7317 C   0  0  0  0  0  0  0  0  0  0  0  0
   -0.4519   -5.3085    1.0646 C   0  0  0  0  0  0  0  0  0  0  0  0
    1.7931   -5.9692    0.7020 C   0  0  0  0  0  0  0  0  0  0  0  0
    1.0090   -7.2596    0.8793 C   0  0  0  0  0  0  0  0  0  0  0  0
   -0.4186   -6.8284    1.2130 C   0  0  0  0  0  0  0  0  0  0  0  0
   -0.7306   -2.9335   -0.1599 H   0  0  0  0  0  0  0  0  0  0  0  0
   -0.4266    2.0531    0.0239 H   0  0  0  0  0  0  0  0  0  0  0  0
    1.4722    3.1392    1.2173 H   0  0  0  0  0  0  0  0  0  0  0  0
    3.7131    0.4420   -1.3060 H   0  0  0  0  0  0  0  0  0  0  0  0
    0.5223   -5.2056   -0.8695 H   0  0  0  0  0  0  0  0  0  0  0  0
    5.5588    2.0940   -1.4096 H   0  0  0  0  0  0  0  0  0  0  0  0
    4.0995    6.8025    1.5651 H   0  0  0  0  0  0  0  0  0  0  0  0
    3.7952    6.4015   -0.1369 H   0  0  0  0  0  0  0  0  0  0  0  0
    6.2416    6.2110    0.4462 H   0  0  0  0  0  0  0  0  0  0  0  0
    5.8631    5.0041    1.6909 H   0  0  0  0  0  0  0  0  0  0  0  0
   -0.3497   -4.8335    2.0488 H   0  0  0  0  0  0  0  0  0  0  0  0
   -1.3992   -4.9676    0.6350 H   0  0  0  0  0  0  0  0  0  0  0  0
    2.6401   -6.0854    0.0194 H   0  0  0  0  0  0  0  0  0  0  0  0
    2.1912   -5.6411    1.6717 H   0  0  0  0  0  0  0  0  0  0  0  0
    1.4415   -7.8955    1.6576 H   0  0  0  0  0  0  0  0  0  0  0  0
    1.0139   -7.8310   -0.0563 H   0  0  0  0  0  0  0  0  0  0  0  0
   -0.7069   -7.1311    2.2247 H   0  0  0  0  0  0  0  0  0  0  0  0
   -1.1216   -7.2996    0.5165 H   0  0  0  0  0  0  0  0  0  0  0  0
  2  1  2  0  0  0  0
  3  1  1  0  0  0  0
  3 24  1  0  0  0  0
  4  2  1  0  0  0  0
  5  3  1  0  0  0  0
  6  1  1  0  0  0  0
  7  6  1  0  0  0  0
  7  4  2  0  0  0  0
  7 25  1  0  0  0  0
  8  4  1  0  0  0  0
  9 10  2  0  0  0  0
 10  8  1  0  0  0  0
 10 26  1  0  0  0  0
 11 17  2  0  0  0  0
 11  9  1  0  0  0  0
 12  9  1  0  0  0  0
 13  5  2  0  0  0  0
 14 11  1  0  0  0  0
 15  8  2  0  0  0  0
 15 27  1  0  0  0  0
 16  5  1  0  0  0  0
 16 28  1  0  0  0  0
 17 15  1  0  0  0  0
 17 29  1  0  0  0  0
 18 12  1  0  0  0  0
 18 19  1  0  0  0  0
 18 30  1  0  0  0  0
 18 31  1  0  0  0  0
 19 14  1  0  0  0  0
 19 32  1  0  0  0  0
 19 33  1  0  0  0  0
 20 16  1  0  0  0  0
 20 34  1  0  0  0  0
 20 35  1  0  0  0  0
 21 16  1  0  0  0  0
 21 36  1  0  0  0  0
 21 37  1  0  0  0  0
 22 21  1  0  0  0  0
 22 23  1  0  0  0  0
 22 38  1  0  0  0  0
 22 39  1  0  0  0  0
 23 20  1  0  0  0  0
 23 40  1  0  0  0  0
 23 41  1  0  0  0  0
M  END
>  <Mol_ID>
8497

>  <Formula>
C17H18N2O3S

>  <MolWeight>
330.40142

>  <Cat>
P3023

>  <Name>
WAY-637921

>  <Synonyms>
N/A

>  <Target>
others

>  <Form>
free base

>  <CAS>
794583-45-2

>  <URL>
N/A

$$$$
