WAY-661874
 OpenBabel08302521443D

 37 39  0  0  0  0  0  0  0  0999 V2000
    3.8295   -2.5478   -0.3506 N   0  0  0  0  0  0  0  0  0  0  0  0
    3.5536   -3.0117   -1.6074 N   0  0  0  0  0  0  0  0  0  0  0  0
    4.1826   -3.3559    0.7112 C   0  0  0  0  0  0  0  0  0  0  0  0
    3.5954   -4.2308   -1.8776 N   0  0  0  0  0  0  0  0  0  0  0  0
    4.3435   -4.7682    0.3878 C   0  0  0  0  0  0  0  0  0  0  0  0
    3.5566   -1.1429   -0.1195 C   0  0  0  0  0  0  0  0  0  0  0  0
    4.8137   -0.2798   -0.0311 C   0  0  0  0  0  0  0  0  0  0  0  0
    3.9958   -5.1481   -0.8999 C   0  0  0  0  0  0  0  0  0  0  0  0
    4.3225   -2.9658    1.8671 O   0  0  0  0  0  0  0  0  0  0  0  0
    4.6288    1.2081   -0.0172 C   0  0  0  0  0  0  0  0  0  0  0  0
    5.9519   -0.7450   -0.0094 O   0  0  0  0  0  0  0  0  0  0  0  0
    3.3625    1.8023    0.0070 C   0  0  0  0  0  0  0  0  0  0  0  0
    5.7580    2.0294   -0.1160 C   0  0  0  0  0  0  0  0  0  0  0  0
    4.7821   -5.7010    1.3355 C   0  0  0  0  0  0  0  0  0  0  0  0
    5.6204    3.4129   -0.2880 C   0  0  0  0  0  0  0  0  0  0  0  0
    3.2284    3.1834   -0.1695 C   0  0  0  0  0  0  0  0  0  0  0  0
    4.3520    4.0023   -0.3532 C   0  0  0  0  0  0  0  0  0  0  0  0
    4.0491   -6.5081   -1.2272 C   0  0  0  0  0  0  0  0  0  0  0  0
    4.1384    5.4453   -0.7521 C   0  0  0  0  0  0  0  0  0  0  0  0
    4.8561   -7.0487    0.9879 C   0  0  0  0  0  0  0  0  0  0  0  0
    5.2021    6.4398   -0.3113 C   0  0  0  0  0  0  0  0  0  0  0  0
    4.4758   -7.4551   -0.2905 C   0  0  0  0  0  0  0  0  0  0  0  0
    2.9366   -0.7797   -0.9479 H   0  0  0  0  0  0  0  0  0  0  0  0
    3.0019   -1.0431    0.8189 H   0  0  0  0  0  0  0  0  0  0  0  0
    2.4533    1.2205    0.1230 H   0  0  0  0  0  0  0  0  0  0  0  0
    6.7561    1.5937   -0.1061 H   0  0  0  0  0  0  0  0  0  0  0  0
    5.0631   -5.3765    2.3348 H   0  0  0  0  0  0  0  0  0  0  0  0
    6.5220    4.0072   -0.4150 H   0  0  0  0  0  0  0  0  0  0  0  0
    2.2285    3.6138   -0.2029 H   0  0  0  0  0  0  0  0  0  0  0  0
    3.7551   -6.8326   -2.2230 H   0  0  0  0  0  0  0  0  0  0  0  0
    4.0603    5.4742   -1.8466 H   0  0  0  0  0  0  0  0  0  0  0  0
    3.1745    5.7901   -0.3571 H   0  0  0  0  0  0  0  0  0  0  0  0
    5.2028   -7.7808    1.7138 H   0  0  0  0  0  0  0  0  0  0  0  0
    5.3164    6.4418    0.7769 H   0  0  0  0  0  0  0  0  0  0  0  0
    6.1751    6.2221   -0.7622 H   0  0  0  0  0  0  0  0  0  0  0  0
    4.9169    7.4494   -0.6268 H   0  0  0  0  0  0  0  0  0  0  0  0
    4.5150   -8.5075   -0.5617 H   0  0  0  0  0  0  0  0  0  0  0  0
  2  1  1  0  0  0  0
  3  1  1  0  0  0  0
  4  2  2  0  0  0  0
  5  3  1  0  0  0  0
  6  1  1  0  0  0  0
  6 23  1  0  0  0  0
  6 24  1  0  0  0  0
  7  6  1  0  0  0  0
  8  5  2  0  0  0  0
  8  4  1  0  0  0  0
  9  3  2  0  0  0  0
 10  7  1  0  0  0  0
 11  7  2  0  0  0  0
 12 10  2  0  0  0  0
 12 25  1  0  0  0  0
 13 10  1  0  0  0  0
 13 26  1  0  0  0  0
 14  5  1  0  0  0  0
 14 27  1  0  0  0  0
 15 13  2  0  0  0  0
 15 28  1  0  0  0  0
 16 12  1  0  0  0  0
 16 17  2  0  0  0  0
 16 29  1  0  0  0  0
 17 15  1  0  0  0  0
 18  8  1  0  0  0  0
 18 30  1  0  0  0  0
 19 17  1  0  0  0  0
 19 31  1  0  0  0  0
 19 32  1  0  0  0  0
 20 14  2  0  0  0  0
 20 33  1  0  0  0  0
 21 19  1  0  0  0  0
 21 34  1  0  0  0  0
 21 35  1  0  0  0  0
 21 36  1  0  0  0  0
 22 20  1  0  0  0  0
 22 18  2  0  0  0  0
 22 37  1  0  0  0  0
M  END
>  <Mol_ID>
9134

>  <Formula>
C17H15N3O2

>  <MolWeight>
293.3199

>  <Cat>
P3215

>  <Name>
WAY-661874

>  <Synonyms>
N/A

>  <Target>
Androgen Receptor

>  <Form>
free base

>  <CAS>
897770-56-8

>  <URL>
N/A

$$$$
