WAY-327948
 OpenBabel08302521443D

 58 60  0  0  0  0  0  0  0  0999 V2000
    0.9447   -0.0354    0.0052 S   0  0  0  0  0  0  0  0  0  0  0  0
    0.4057   -4.2902    3.0282 C   0  0  0  0  0  0  0  0  0  0  0  0
    0.2696   -2.8252    2.8598 C   0  0  0  0  0  0  0  0  0  0  0  0
    0.4668   -0.7685    1.5641 C   0  0  0  0  0  0  0  0  0  0  0  0
   -0.5523    0.1344   -0.8023 N   0  0  0  0  0  0  0  0  0  0  0  0
   -0.4554   -2.6734    5.1594 N   0  0  0  0  0  0  0  0  0  0  0  0
   -0.4276   -4.0278    5.3380 C   0  0  0  0  0  0  0  0  0  0  0  0
   -0.1066   -2.0418    3.9644 C   0  0  0  0  0  0  0  0  0  0  0  0
    0.0634   -4.8410    4.2061 C   0  0  0  0  0  0  0  0  0  0  0  0
    0.4870   -2.1661    1.6492 C   0  0  0  0  0  0  0  0  0  0  0  0
    0.8770   -5.2727    1.9906 C   0  0  0  0  0  0  0  0  0  0  0  0
    1.7311   -1.0302   -0.6979 O   0  0  0  0  0  0  0  0  0  0  0  0
    1.4863    1.2770    0.2921 O   0  0  0  0  0  0  0  0  0  0  0  0
    0.1737    0.0045    2.6856 C   0  0  0  0  0  0  0  0  0  0  0  0
   -0.1581   -0.6423    3.8798 C   0  0  0  0  0  0  0  0  0  0  0  0
   -0.7773   -4.5531    6.3885 O   0  0  0  0  0  0  0  0  0  0  0  0
    0.5018   -6.4408    1.9937 O   0  0  0  0  0  0  0  0  0  0  0  0
    1.7481   -4.7808    1.0525 N   0  0  0  0  0  0  0  0  0  0  0  0
   -1.2554    1.4046   -0.5090 C   0  0  0  0  0  0  0  0  0  0  0  0
   -1.3325   -1.1068   -0.9989 C   0  0  0  0  0  0  0  0  0  0  0  0
    2.1331   -5.5409   -0.1195 C   0  0  0  0  0  0  0  0  0  0  0  0
    2.8898   -4.6932   -1.1478 C   0  0  0  0  0  0  0  0  0  0  0  0
    4.1891   -4.0470   -0.6259 C   0  0  0  0  0  0  0  0  0  0  0  0
   -2.0031   -1.1561   -2.3646 C   0  0  0  0  0  0  0  0  0  0  0  0
   -2.7493    1.4491   -0.7847 C   0  0  0  0  0  0  0  0  0  0  0  0
    5.1694   -5.0849   -0.0810 C   0  0  0  0  0  0  0  0  0  0  0  0
    4.8556   -3.2238   -1.7303 C   0  0  0  0  0  0  0  0  0  0  0  0
   -3.3141   -0.3872   -2.4319 C   0  0  0  0  0  0  0  0  0  0  0  0
   -3.1464    1.1102   -2.2156 C   0  0  0  0  0  0  0  0  0  0  0  0
   -0.7890   -2.1372    5.9504 H   0  0  0  0  0  0  0  0  0  0  0  0
    0.1290   -5.9068    4.3998 H   0  0  0  0  0  0  0  0  0  0  0  0
    0.6673   -2.7197    0.7343 H   0  0  0  0  0  0  0  0  0  0  0  0
    0.1926    1.0895    2.6394 H   0  0  0  0  0  0  0  0  0  0  0  0
   -0.4292   -0.0480    4.7505 H   0  0  0  0  0  0  0  0  0  0  0  0
    2.2419   -3.9206    1.2448 H   0  0  0  0  0  0  0  0  0  0  0  0
   -0.7674    2.1849   -1.1082 H   0  0  0  0  0  0  0  0  0  0  0  0
   -1.1146    1.6748    0.5433 H   0  0  0  0  0  0  0  0  0  0  0  0
   -2.0500   -1.2473   -0.1836 H   0  0  0  0  0  0  0  0  0  0  0  0
   -0.6557   -1.9686   -0.9758 H   0  0  0  0  0  0  0  0  0  0  0  0
    2.7166   -6.4068    0.2047 H   0  0  0  0  0  0  0  0  0  0  0  0
    1.2157   -5.9289   -0.5800 H   0  0  0  0  0  0  0  0  0  0  0  0
    3.1192   -5.3254   -2.0156 H   0  0  0  0  0  0  0  0  0  0  0  0
    2.2234   -3.8994   -1.5120 H   0  0  0  0  0  0  0  0  0  0  0  0
    3.9448   -3.3509    0.1849 H   0  0  0  0  0  0  0  0  0  0  0  0
   -2.2301   -2.2059   -2.5930 H   0  0  0  0  0  0  0  0  0  0  0  0
   -1.3178   -0.8057   -3.1453 H   0  0  0  0  0  0  0  0  0  0  0  0
   -3.0787    2.4767   -0.5819 H   0  0  0  0  0  0  0  0  0  0  0  0
   -3.2882    0.8148   -0.0714 H   0  0  0  0  0  0  0  0  0  0  0  0
    5.4184   -5.8320   -0.8418 H   0  0  0  0  0  0  0  0  0  0  0  0
    6.0987   -4.6074    0.2458 H   0  0  0  0  0  0  0  0  0  0  0  0
    4.7545   -5.6062    0.7871 H   0  0  0  0  0  0  0  0  0  0  0  0
    5.1468   -3.8523   -2.5783 H   0  0  0  0  0  0  0  0  0  0  0  0
    4.1791   -2.4453   -2.0987 H   0  0  0  0  0  0  0  0  0  0  0  0
    5.7557   -2.7276   -1.3511 H   0  0  0  0  0  0  0  0  0  0  0  0
   -3.7680   -0.5548   -3.4154 H   0  0  0  0  0  0  0  0  0  0  0  0
   -4.0189   -0.7932   -1.6947 H   0  0  0  0  0  0  0  0  0  0  0  0
   -2.4281    1.5248   -2.9330 H   0  0  0  0  0  0  0  0  0  0  0  0
   -4.1116    1.5859   -2.4257 H   0  0  0  0  0  0  0  0  0  0  0  0
  2  3  1  0  0  0  0
  3 10  2  0  0  0  0
  4  1  1  0  0  0  0
  5  1  1  0  0  0  0
  6  8  1  0  0  0  0
  6 30  1  0  0  0  0
  7  6  1  0  0  0  0
  8 15  2  0  0  0  0
  8  3  1  0  0  0  0
  9  2  2  0  0  0  0
  9  7  1  0  0  0  0
  9 31  1  0  0  0  0
 10  4  1  0  0  0  0
 10 32  1  0  0  0  0
 11  2  1  0  0  0  0
 12  1  2  0  0  0  0
 13  1  2  0  0  0  0
 14  4  2  0  0  0  0
 14 33  1  0  0  0  0
 15 14  1  0  0  0  0
 15 34  1  0  0  0  0
 16  7  2  0  0  0  0
 17 11  2  0  0  0  0
 18 11  1  0  0  0  0
 18 35  1  0  0  0  0
 19  5  1  0  0  0  0
 19 36  1  0  0  0  0
 19 37  1  0  0  0  0
 20  5  1  0  0  0  0
 20 38  1  0  0  0  0
 20 39  1  0  0  0  0
 21 18  1  0  0  0  0
 21 40  1  0  0  0  0
 21 41  1  0  0  0  0
 22 21  1  0  0  0  0
 22 42  1  0  0  0  0
 22 43  1  0  0  0  0
 23 22  1  0  0  0  0
 23 44  1  0  0  0  0
 24 20  1  0  0  0  0
 24 45  1  0  0  0  0
 24 46  1  0  0  0  0
 25 19  1  0  0  0  0
 25 47  1  0  0  0  0
 25 48  1  0  0  0  0
 26 23  1  0  0  0  0
 26 49  1  0  0  0  0
 26 50  1  0  0  0  0
 26 51  1  0  0  0  0
 27 23  1  0  0  0  0
 27 52  1  0  0  0  0
 27 53  1  0  0  0  0
 27 54  1  0  0  0  0
 28 24  1  0  0  0  0
 28 55  1  0  0  0  0
 28 56  1  0  0  0  0
 29 25  1  0  0  0  0
 29 28  1  0  0  0  0
 29 57  1  0  0  0  0
 29 58  1  0  0  0  0
M  END
>  <Mol_ID>
8988

>  <Formula>
C21H29N3O4S

>  <MolWeight>
419.53766

>  <Cat>
P2551

>  <Name>
WAY-327948

>  <Synonyms>
N/A

>  <Target>
caspase

>  <Form>
free base

>  <CAS>
687590-16-5

>  <URL>
N/A

$$$$
