WAY-331603
 OpenBabel08302521443D

 39 41  0  0  0  0  0  0  0  0999 V2000
    1.3393   -0.0859   -0.1181 S   0  0  0  0  0  0  0  0  0  0  0  0
   -1.0646    4.4240   -3.5906 C   0  0  0  0  0  0  0  0  0  0  0  0
   -0.6677    3.3753   -4.3955 N   0  0  0  0  0  0  0  0  0  0  0  0
   -0.9276    4.1059   -2.2350 O   0  0  0  0  0  0  0  0  0  0  0  0
   -0.3983    2.8234   -2.2814 C   0  0  0  0  0  0  0  0  0  0  0  0
   -0.2537    2.3615   -3.5763 C   0  0  0  0  0  0  0  0  0  0  0  0
    0.5568    0.8124   -1.4568 C   0  0  0  0  0  0  0  0  0  0  0  0
    0.4759   -1.5454    0.0040 N   0  0  0  0  0  0  0  0  0  0  0  0
   -0.0021    2.0722   -1.1932 C   0  0  0  0  0  0  0  0  0  0  0  0
    1.0965    0.6946    1.0843 O   0  0  0  0  0  0  0  0  0  0  0  0
    2.6896   -0.3516   -0.5696 O   0  0  0  0  0  0  0  0  0  0  0  0
    0.2510    1.1181   -3.8662 C   0  0  0  0  0  0  0  0  0  0  0  0
   -1.4911    5.5118   -3.9836 O   0  0  0  0  0  0  0  0  0  0  0  0
    0.9175   -2.7282   -0.7800 C   0  0  0  0  0  0  0  0  0  0  0  0
    0.6545    0.3325   -2.7848 C   0  0  0  0  0  0  0  0  0  0  0  0
   -0.5976    3.4000   -5.8274 C   0  0  0  0  0  0  0  0  0  0  0  0
    2.2965   -3.2970   -0.5017 C   0  0  0  0  0  0  0  0  0  0  0  0
   -0.0839   -1.8401    1.3343 C   0  0  0  0  0  0  0  0  0  0  0  0
    2.6654   -3.7776    0.7608 C   0  0  0  0  0  0  0  0  0  0  0  0
    3.2338   -3.3987   -1.5448 C   0  0  0  0  0  0  0  0  0  0  0  0
    4.4531   -4.0525   -1.3579 C   0  0  0  0  0  0  0  0  0  0  0  0
    3.9218   -4.3571    0.9686 C   0  0  0  0  0  0  0  0  0  0  0  0
    4.7987   -4.5307   -0.0989 C   0  0  0  0  0  0  0  0  0  0  0  0
   -0.0868    2.4698   -0.1846 H   0  0  0  0  0  0  0  0  0  0  0  0
    0.3520    0.7540   -4.8819 H   0  0  0  0  0  0  0  0  0  0  0  0
    0.1910   -3.5468   -0.6579 H   0  0  0  0  0  0  0  0  0  0  0  0
    0.8485   -2.4876   -1.8471 H   0  0  0  0  0  0  0  0  0  0  0  0
    1.0840   -0.6401   -3.0025 H   0  0  0  0  0  0  0  0  0  0  0  0
   -1.6021    3.5600   -6.2277 H   0  0  0  0  0  0  0  0  0  0  0  0
    0.0391    4.2336   -6.1395 H   0  0  0  0  0  0  0  0  0  0  0  0
   -0.1909    2.4701   -6.2312 H   0  0  0  0  0  0  0  0  0  0  0  0
    0.7071   -2.0348    2.0628 H   0  0  0  0  0  0  0  0  0  0  0  0
   -0.6832   -0.9976    1.6940 H   0  0  0  0  0  0  0  0  0  0  0  0
   -0.7457   -2.7101    1.2965 H   0  0  0  0  0  0  0  0  0  0  0  0
    1.9872   -3.7019    1.6041 H   0  0  0  0  0  0  0  0  0  0  0  0
    3.0287   -2.9682   -2.5209 H   0  0  0  0  0  0  0  0  0  0  0  0
    5.1265   -4.1896   -2.2000 H   0  0  0  0  0  0  0  0  0  0  0  0
    4.2100   -4.6840    1.9639 H   0  0  0  0  0  0  0  0  0  0  0  0
    5.7487   -5.0362    0.0488 H   0  0  0  0  0  0  0  0  0  0  0  0
  2  4  1  0  0  0  0
  2  3  1  0  0  0  0
  3  6  1  0  0  0  0
  4  5  1  0  0  0  0
  5  9  2  0  0  0  0
  6 12  2  0  0  0  0
  6  5  1  0  0  0  0
  7  1  1  0  0  0  0
  8  1  1  0  0  0  0
  9  7  1  0  0  0  0
  9 24  1  0  0  0  0
 10  1  2  0  0  0  0
 11  1  2  0  0  0  0
 12 15  1  0  0  0  0
 12 25  1  0  0  0  0
 13  2  2  0  0  0  0
 14  8  1  0  0  0  0
 14 26  1  0  0  0  0
 14 27  1  0  0  0  0
 15  7  2  0  0  0  0
 15 28  1  0  0  0  0
 16  3  1  0  0  0  0
 16 29  1  0  0  0  0
 16 30  1  0  0  0  0
 16 31  1  0  0  0  0
 17 14  1  0  0  0  0
 18  8  1  0  0  0  0
 18 32  1  0  0  0  0
 18 33  1  0  0  0  0
 18 34  1  0  0  0  0
 19 17  2  0  0  0  0
 19 35  1  0  0  0  0
 20 17  1  0  0  0  0
 20 36  1  0  0  0  0
 21 20  2  0  0  0  0
 21 37  1  0  0  0  0
 22 19  1  0  0  0  0
 22 38  1  0  0  0  0
 23 21  1  0  0  0  0
 23 22  2  0  0  0  0
 23 39  1  0  0  0  0
M  END
>  <Mol_ID>
9183

>  <Formula>
C16H16N2O4S

>  <MolWeight>
332.37424

>  <Cat>
P2616

>  <Name>
WAY-331603

>  <Synonyms>
N/A

>  <Target>
PKM2

>  <Form>
free base

>  <CAS>
781656-66-4

>  <URL>
N/A

$$$$
