WAY-230952
 OpenBabel08302521413D

 46 48  0  0  0  0  0  0  0  0999 V2000
   -1.1216   -1.7244   -0.1205 C   0  0  0  0  0  0  0  0  0  0  0  0
    0.1024   -0.9148   -0.2274 C   0  0  0  0  0  0  0  0  0  0  0  0
   -2.2143   -0.8690    0.0105 C   0  0  0  0  0  0  0  0  0  0  0  0
   -1.2105   -3.2072   -0.1292 C   0  0  0  0  0  0  0  0  0  0  0  0
   -0.1501    0.4367   -0.0490 C   0  0  0  0  0  0  0  0  0  0  0  0
    1.5248   -1.3685   -0.4652 C   0  0  0  0  0  0  0  0  0  0  0  0
   -1.7870    0.7636    0.2305 S   0  0  0  0  0  0  0  0  0  0  0  0
   -3.5812   -1.0335    0.1206 N   0  0  0  0  0  0  0  0  0  0  0  0
   -0.1686   -3.9458    0.4719 N   0  0  0  0  0  0  0  0  0  0  0  0
   -2.1485   -3.7903   -0.6694 O   0  0  0  0  0  0  0  0  0  0  0  0
    0.8748    1.5339   -0.0000 C   0  0  0  0  0  0  0  0  0  0  0  0
    2.5138   -0.3944    0.1975 C   0  0  0  0  0  0  0  0  0  0  0  0
   -4.3427   -1.6930   -0.8312 C   0  0  0  0  0  0  0  0  0  0  0  0
   -0.0937   -5.3720    0.1239 C   0  0  0  0  0  0  0  0  0  0  0  0
    0.4812   -3.5154    1.7190 C   0  0  0  0  0  0  0  0  0  0  0  0
    2.2796    1.0170   -0.3448 C   0  0  0  0  0  0  0  0  0  0  0  0
   -5.7579   -1.7585   -0.4667 C   0  0  0  0  0  0  0  0  0  0  0  0
   -3.9237   -2.0942   -1.9106 O   0  0  0  0  0  0  0  0  0  0  0  0
    1.3180   -5.9457    0.1057 C   0  0  0  0  0  0  0  0  0  0  0  0
   -0.1556   -4.0710    2.9808 C   0  0  0  0  0  0  0  0  0  0  0  0
   -6.8166   -2.4279   -1.0549 C   0  0  0  0  0  0  0  0  0  0  0  0
   -6.2108   -1.1080    0.6591 O   0  0  0  0  0  0  0  0  0  0  0  0
   -7.9423   -2.2442   -0.2159 C   0  0  0  0  0  0  0  0  0  0  0  0
   -7.5278   -1.4182    0.8013 C   0  0  0  0  0  0  0  0  0  0  0  0
    1.7070   -1.4063   -1.5448 H   0  0  0  0  0  0  0  0  0  0  0  0
    1.7301   -2.3671   -0.0899 H   0  0  0  0  0  0  0  0  0  0  0  0
   -4.0852   -0.2828    0.5795 H   0  0  0  0  0  0  0  0  0  0  0  0
    0.8915    1.9532    1.0136 H   0  0  0  0  0  0  0  0  0  0  0  0
    0.6096    2.3452   -0.6879 H   0  0  0  0  0  0  0  0  0  0  0  0
    3.5438   -0.7122   -0.0055 H   0  0  0  0  0  0  0  0  0  0  0  0
    2.3820   -0.3968    1.2878 H   0  0  0  0  0  0  0  0  0  0  0  0
   -0.7228   -5.9324    0.8261 H   0  0  0  0  0  0  0  0  0  0  0  0
   -0.5263   -5.5259   -0.8742 H   0  0  0  0  0  0  0  0  0  0  0  0
    1.5366   -3.8068    1.6743 H   0  0  0  0  0  0  0  0  0  0  0  0
    0.4609   -2.4308    1.8182 H   0  0  0  0  0  0  0  0  0  0  0  0
    3.0336    1.7085    0.0471 H   0  0  0  0  0  0  0  0  0  0  0  0
    2.4037    0.9985   -1.4354 H   0  0  0  0  0  0  0  0  0  0  0  0
    1.7855   -5.9142    1.0942 H   0  0  0  0  0  0  0  0  0  0  0  0
    1.3003   -6.9943   -0.2106 H   0  0  0  0  0  0  0  0  0  0  0  0
    1.9563   -5.3912   -0.5903 H   0  0  0  0  0  0  0  0  0  0  0  0
   -0.3205   -5.1495    2.9260 H   0  0  0  0  0  0  0  0  0  0  0  0
    0.5012   -3.8734    3.8349 H   0  0  0  0  0  0  0  0  0  0  0  0
   -1.1156   -3.5819    3.1694 H   0  0  0  0  0  0  0  0  0  0  0  0
   -6.7546   -3.0191   -1.9587 H   0  0  0  0  0  0  0  0  0  0  0  0
   -8.9309   -2.6688   -0.3340 H   0  0  0  0  0  0  0  0  0  0  0  0
   -8.0218   -0.9972    1.6671 H   0  0  0  0  0  0  0  0  0  0  0  0
  1  2  1  0  0  0  0
  1  3  2  0  0  0  0
  1  4  1  0  0  0  0
  2  5  2  0  0  0  0
  2  6  1  0  0  0  0
  3  7  1  0  0  0  0
  3  8  1  0  0  0  0
  4  9  1  0  0  0  0
  4 10  2  0  0  0  0
  5 11  1  0  0  0  0
  5  7  1  0  0  0  0
  6 12  1  0  0  0  0
  6 25  1  0  0  0  0
  6 26  1  0  0  0  0
  8 13  1  0  0  0  0
  8 27  1  0  0  0  0
  9 14  1  0  0  0  0
  9 15  1  0  0  0  0
 11 16  1  0  0  0  0
 11 28  1  0  0  0  0
 11 29  1  0  0  0  0
 12 16  1  0  0  0  0
 12 30  1  0  0  0  0
 12 31  1  0  0  0  0
 13 17  1  0  0  0  0
 13 18  2  0  0  0  0
 14 19  1  0  0  0  0
 14 32  1  0  0  0  0
 14 33  1  0  0  0  0
 15 20  1  0  0  0  0
 15 34  1  0  0  0  0
 15 35  1  0  0  0  0
 16 36  1  0  0  0  0
 16 37  1  0  0  0  0
 17 21  2  0  0  0  0
 17 22  1  0  0  0  0
 19 38  1  0  0  0  0
 19 39  1  0  0  0  0
 19 40  1  0  0  0  0
 20 41  1  0  0  0  0
 20 42  1  0  0  0  0
 20 43  1  0  0  0  0
 21 23  1  0  0  0  0
 21 44  1  0  0  0  0
 22 24  1  0  0  0  0
 23 24  2  0  0  0  0
 23 45  1  0  0  0  0
 24 46  1  0  0  0  0
M  END
>  <Mol_ID>
8376

>  <Formula>
C18H22N2O3S

>  <MolWeight>
346.44388

>  <Cat>
P2063

>  <Name>
WAY-230952

>  <Synonyms>
N/A

>  <Target>
kinesin spindle protein

>  <Form>
free base

>  <CAS>
1428114-07-1

>  <URL>
N/A

$$$$
