WAY-313177
 OpenBabel08302521393D

 29 30  0  0  0  0  0  0  0  0999 V2000
    0.6917   -0.1367   -0.0535 C   0  0  0  0  0  0  0  0  0  0  0  0
    2.1270   -0.1503    0.1624 C   0  0  0  0  0  0  0  0  0  0  0  0
   -0.1714    0.8529   -0.4837 C   0  0  0  0  0  0  0  0  0  0  0  0
   -0.0243   -1.2833    0.1808 O   0  0  0  0  0  0  0  0  0  0  0  0
    2.8070    0.9184   -0.1603 N   0  0  0  0  0  0  0  0  0  0  0  0
    2.7009   -1.4427    0.7121 C   0  0  0  0  0  0  0  0  0  0  0  0
   -1.4694    0.2858   -0.5140 C   0  0  0  0  0  0  0  0  0  0  0  0
   -1.3295   -1.0200   -0.1046 C   0  0  0  0  0  0  0  0  0  0  0  0
    4.1571    0.9288    0.0128 N   0  0  0  0  0  0  0  0  0  0  0  0
   -2.2807   -2.1360    0.0712 C   0  0  0  0  0  0  0  0  0  0  0  0
    5.0239    1.9618   -0.3130 C   0  0  0  0  0  0  0  0  0  0  0  0
    4.5403    3.1802   -0.9354 C   0  0  0  0  0  0  0  0  0  0  0  0
    6.2166    1.7661   -0.0530 O   0  0  0  0  0  0  0  0  0  0  0  0
    3.2982    3.6706   -1.3012 C   0  0  0  0  0  0  0  0  0  0  0  0
    5.4901    4.1158   -1.2811 O   0  0  0  0  0  0  0  0  0  0  0  0
    3.5035    4.9375   -1.9039 C   0  0  0  0  0  0  0  0  0  0  0  0
    4.8566    5.1618   -1.8637 C   0  0  0  0  0  0  0  0  0  0  0  0
    0.1094    1.8625   -0.7444 H   0  0  0  0  0  0  0  0  0  0  0  0
    2.0905   -1.7912    1.5518 H   0  0  0  0  0  0  0  0  0  0  0  0
    2.6780   -2.2026   -0.0757 H   0  0  0  0  0  0  0  0  0  0  0  0
    3.7218   -1.3543    1.0794 H   0  0  0  0  0  0  0  0  0  0  0  0
   -2.3919    0.7696   -0.8042 H   0  0  0  0  0  0  0  0  0  0  0  0
    4.6429    0.1358    0.4083 H   0  0  0  0  0  0  0  0  0  0  0  0
   -1.9932   -2.9876   -0.5531 H   0  0  0  0  0  0  0  0  0  0  0  0
   -2.3038   -2.4634    1.1150 H   0  0  0  0  0  0  0  0  0  0  0  0
   -3.2945   -1.8350   -0.2130 H   0  0  0  0  0  0  0  0  0  0  0  0
    2.3511    3.1726   -1.1596 H   0  0  0  0  0  0  0  0  0  0  0  0
    2.7590    5.6029   -2.3173 H   0  0  0  0  0  0  0  0  0  0  0  0
    5.4956    5.9700   -2.1917 H   0  0  0  0  0  0  0  0  0  0  0  0
  1  2  1  0  0  0  0
  1  3  2  0  0  0  0
  1  4  1  0  0  0  0
  2  5  2  0  0  0  0
  2  6  1  0  0  0  0
  3  7  1  0  0  0  0
  3 18  1  0  0  0  0
  4  8  1  0  0  0  0
  5  9  1  0  0  0  0
  6 19  1  0  0  0  0
  6 20  1  0  0  0  0
  6 21  1  0  0  0  0
  7  8  2  0  0  0  0
  7 22  1  0  0  0  0
  8 10  1  0  0  0  0
  9 11  1  0  0  0  0
  9 23  1  0  0  0  0
 10 24  1  0  0  0  0
 10 25  1  0  0  0  0
 10 26  1  0  0  0  0
 11 12  1  0  0  0  0
 11 13  2  0  0  0  0
 12 14  2  0  0  0  0
 12 15  1  0  0  0  0
 14 16  1  0  0  0  0
 14 27  1  0  0  0  0
 15 17  1  0  0  0  0
 16 17  2  0  0  0  0
 16 28  1  0  0  0  0
 17 29  1  0  0  0  0
M  END
>  <Mol_ID>
8035

>  <Formula>
C12H12N2O3

>  <MolWeight>
232.23528

>  <Cat>
P2244

>  <Name>
WAY-313177

>  <Synonyms>
N/A

>  <Target>
Alanyl aminopeptidase

>  <Form>
free base

>  <CAS>
331817-85-7

>  <URL>
N/A

$$$$
