WAY-301207
 OpenBabel08302521413D

 28 30  0  0  0  0  0  0  0  0999 V2000
    0.4961    0.4867   -0.0407 C   0  0  0  0  0  0  0  0  0  0  0  0
   -0.9120    0.5012   -0.0726 C   0  0  0  0  0  0  0  0  0  0  0  0
    0.9970   -0.7938    0.0353 C   0  0  0  0  0  0  0  0  0  0  0  0
    1.4203    1.5858   -0.0568 C   0  0  0  0  0  0  0  0  0  0  0  0
   -1.4351   -0.7600   -0.0424 C   0  0  0  0  0  0  0  0  0  0  0  0
   -1.9713    1.5357   -0.1182 C   0  0  0  0  0  0  0  0  0  0  0  0
   -0.2753   -1.9698    0.0275 S   0  0  0  0  0  0  0  0  0  0  0  0
    2.3100   -1.1325    0.1278 N   0  0  0  0  0  0  0  0  0  0  0  0
    2.7691    1.2046    0.0040 N   0  0  0  0  0  0  0  0  0  0  0  0
    1.0419    2.7501   -0.1137 O   0  0  0  0  0  0  0  0  0  0  0  0
   -2.9197   -0.7809   -0.0677 C   0  0  0  0  0  0  0  0  0  0  0  0
   -3.2387    0.7135    0.2677 C   0  0  0  0  0  0  0  0  0  0  0  0
    3.1713   -0.1408    0.1097 C   0  0  0  0  0  0  0  0  0  0  0  0
    3.6808    2.3351    0.0147 C   0  0  0  0  0  0  0  0  0  0  0  0
    4.5344   -0.4115    0.2304 N   0  0  0  0  0  0  0  0  0  0  0  0
    4.9526   -1.7563    0.3470 N   0  0  0  0  0  0  0  0  0  0  0  0
   -2.0677    1.9415   -1.1308 H   0  0  0  0  0  0  0  0  0  0  0  0
   -1.7981    2.3532    0.5873 H   0  0  0  0  0  0  0  0  0  0  0  0
   -3.2906   -1.0278   -1.0678 H   0  0  0  0  0  0  0  0  0  0  0  0
   -3.3662   -1.4533    0.6693 H   0  0  0  0  0  0  0  0  0  0  0  0
   -4.1394    1.0779   -0.2361 H   0  0  0  0  0  0  0  0  0  0  0  0
   -3.4055    0.8086    1.3494 H   0  0  0  0  0  0  0  0  0  0  0  0
    3.5115    2.9265   -0.8921 H   0  0  0  0  0  0  0  0  0  0  0  0
    3.4498    2.9663    0.8799 H   0  0  0  0  0  0  0  0  0  0  0  0
    4.7344    2.0631    0.0598 H   0  0  0  0  0  0  0  0  0  0  0  0
    5.1981    0.2177   -0.2114 H   0  0  0  0  0  0  0  0  0  0  0  0
    5.5100   -1.8645    1.1979 H   0  0  0  0  0  0  0  0  0  0  0  0
    4.1188   -2.3421    0.5047 H   0  0  0  0  0  0  0  0  0  0  0  0
  1  2  1  0  0  0  0
  1  3  2  0  0  0  0
  1  4  1  0  0  0  0
  2  5  2  0  0  0  0
  2  6  1  0  0  0  0
  3  7  1  0  0  0  0
  3  8  1  0  0  0  0
  4  9  1  0  0  0  0
  4 10  2  0  0  0  0
  5 11  1  0  0  0  0
  5  7  1  0  0  0  0
  6 12  1  0  0  0  0
  6 17  1  0  0  0  0
  6 18  1  0  0  0  0
  8 13  2  0  0  0  0
  9 14  1  0  0  0  0
  9 13  1  0  0  0  0
 11 12  1  0  0  0  0
 11 19  1  0  0  0  0
 11 20  1  0  0  0  0
 12 21  1  0  0  0  0
 12 22  1  0  0  0  0
 13 15  1  0  0  0  0
 14 23  1  0  0  0  0
 14 24  1  0  0  0  0
 14 25  1  0  0  0  0
 15 16  1  0  0  0  0
 15 26  1  0  0  0  0
 16 27  1  0  0  0  0
 16 28  1  0  0  0  0
M  END
>  <Mol_ID>
8428

>  <Formula>
C10H12N4OS

>  <MolWeight>
236.29348

>  <Cat>
P2161

>  <Name>
WAY-301207

>  <Synonyms>
N/A

>  <Target>
others

>  <Form>
free base

>  <CAS>
351342-00-2

>  <URL>
N/A

$$$$
