WAY-325440
 OpenBabel08302521433D

 42 44  0  0  0  0  0  0  0  0999 V2000
    0.8620   -0.7145    0.6100 N   0  0  0  0  0  0  0  0  0  0  0  0
    1.0040   -0.4992    1.9386 N   0  0  0  0  0  0  0  0  0  0  0  0
   -0.2885   -0.1552    0.1007 C   0  0  0  0  0  0  0  0  0  0  0  0
   -0.9172    0.4404    1.1739 C   0  0  0  0  0  0  0  0  0  0  0  0
   -0.0839    0.1975    2.2824 C   0  0  0  0  0  0  0  0  0  0  0  0
   -0.0258   -5.4006   -2.2883 C   0  0  0  0  0  0  0  0  0  0  0  0
   -0.9046   -6.4065   -1.9284 N   0  0  0  0  0  0  0  0  0  0  0  0
    1.9415   -1.3902   -0.1052 C   0  0  0  0  0  0  0  0  0  0  0  0
    0.8385   -4.8840   -1.1871 C   0  0  0  0  0  0  0  0  0  0  0  0
   -2.0361   -6.8384   -2.6688 C   0  0  0  0  0  0  0  0  0  0  0  0
    0.0321   -4.8088   -3.3575 O   0  0  0  0  0  0  0  0  0  0  0  0
    1.0892   -3.5038   -1.1823 C   0  0  0  0  0  0  0  0  0  0  0  0
    1.7649   -2.8896   -0.1222 C   0  0  0  0  0  0  0  0  0  0  0  0
   -2.2898   -6.5745   -4.0215 C   0  0  0  0  0  0  0  0  0  0  0  0
   -0.7073   -0.2013   -1.3215 C   0  0  0  0  0  0  0  0  0  0  0  0
   -1.3799   -6.0221   -4.8308 F   0  0  0  0  0  0  0  0  0  0  0  0
   -0.2905    0.6265    3.6849 C   0  0  0  0  0  0  0  0  0  0  0  0
    1.3430   -5.6813   -0.1578 C   0  0  0  0  0  0  0  0  0  0  0  0
    2.0450   -5.0833    0.8932 C   0  0  0  0  0  0  0  0  0  0  0  0
   -3.0092   -7.5525   -1.9492 C   0  0  0  0  0  0  0  0  0  0  0  0
    2.2345   -3.6966    0.9225 C   0  0  0  0  0  0  0  0  0  0  0  0
   -3.5058   -6.9293   -4.6113 C   0  0  0  0  0  0  0  0  0  0  0  0
   -4.2235   -7.9187   -2.5425 C   0  0  0  0  0  0  0  0  0  0  0  0
   -4.4809   -7.5884   -3.8698 C   0  0  0  0  0  0  0  0  0  0  0  0
   -1.8513    0.9845    1.1534 H   0  0  0  0  0  0  0  0  0  0  0  0
   -0.8905   -6.6900   -0.9587 H   0  0  0  0  0  0  0  0  0  0  0  0
    1.9826   -0.9834   -1.1217 H   0  0  0  0  0  0  0  0  0  0  0  0
    2.8858   -1.1176    0.3819 H   0  0  0  0  0  0  0  0  0  0  0  0
    0.7242   -2.9036   -2.0135 H   0  0  0  0  0  0  0  0  0  0  0  0
   -0.0979    0.4746   -1.9280 H   0  0  0  0  0  0  0  0  0  0  0  0
   -0.6359   -1.2086   -1.7332 H   0  0  0  0  0  0  0  0  0  0  0  0
   -1.7536    0.1087   -1.4223 H   0  0  0  0  0  0  0  0  0  0  0  0
   -0.4124   -0.2438    4.3373 H   0  0  0  0  0  0  0  0  0  0  0  0
    0.5633    1.2124    4.0396 H   0  0  0  0  0  0  0  0  0  0  0  0
   -1.1874    1.2477    3.7778 H   0  0  0  0  0  0  0  0  0  0  0  0
    1.2120   -6.7592   -0.1624 H   0  0  0  0  0  0  0  0  0  0  0  0
    2.4371   -5.6951    1.7033 H   0  0  0  0  0  0  0  0  0  0  0  0
   -2.8533   -7.8078   -0.9037 H   0  0  0  0  0  0  0  0  0  0  0  0
    2.7487   -3.2456    1.7708 H   0  0  0  0  0  0  0  0  0  0  0  0
   -3.6750   -6.6829   -5.6557 H   0  0  0  0  0  0  0  0  0  0  0  0
   -4.9750   -8.4484   -1.9617 H   0  0  0  0  0  0  0  0  0  0  0  0
   -5.4305   -7.8504   -4.3290 H   0  0  0  0  0  0  0  0  0  0  0  0
  2  1  1  0  0  0  0
  3  1  1  0  0  0  0
  4  3  2  0  0  0  0
  4 25  1  0  0  0  0
  5  2  2  0  0  0  0
  5  4  1  0  0  0  0
  6  9  1  0  0  0  0
  7  6  1  0  0  0  0
  7 26  1  0  0  0  0
  8  1  1  0  0  0  0
  8 27  1  0  0  0  0
  8 28  1  0  0  0  0
  9 12  2  0  0  0  0
 10  7  1  0  0  0  0
 11  6  2  0  0  0  0
 12 13  1  0  0  0  0
 12 29  1  0  0  0  0
 13  8  1  0  0  0  0
 14 10  2  0  0  0  0
 15  3  1  0  0  0  0
 15 30  1  0  0  0  0
 15 31  1  0  0  0  0
 15 32  1  0  0  0  0
 16 14  1  0  0  0  0
 17  5  1  0  0  0  0
 17 33  1  0  0  0  0
 17 34  1  0  0  0  0
 17 35  1  0  0  0  0
 18 19  2  0  0  0  0
 18  9  1  0  0  0  0
 18 36  1  0  0  0  0
 19 21  1  0  0  0  0
 19 37  1  0  0  0  0
 20 10  1  0  0  0  0
 20 38  1  0  0  0  0
 21 13  2  0  0  0  0
 21 39  1  0  0  0  0
 22 14  1  0  0  0  0
 22 24  2  0  0  0  0
 22 40  1  0  0  0  0
 23 20  2  0  0  0  0
 23 41  1  0  0  0  0
 24 23  1  0  0  0  0
 24 42  1  0  0  0  0
M  END
>  <Mol_ID>
8696

>  <Formula>
C19H17ClFN3O

>  <MolWeight>
357.8091832

>  <Cat>
P2395

>  <Name>
WAY-325440

>  <Synonyms>
N/A

>  <Target>
PfENR

>  <Form>
free base

>  <CAS>
515873-73-1

>  <URL>
N/A

$$$$
