WAY-343996
 OpenBabel08302521403D

 29 31  0  0  0  0  0  0  0  0999 V2000
   -0.1037   -1.2580   -0.0540 C   0  0  0  0  0  0  0  0  0  0  0  0
    1.1414   -0.6549    0.0960 N   0  0  0  0  0  0  0  0  0  0  0  0
   -0.4363   -2.7103    0.0078 C   0  0  0  0  0  0  0  0  0  0  0  0
   -1.0258   -0.3293   -0.2112 N   0  0  0  0  0  0  0  0  0  0  0  0
    0.8516    0.6987    0.1213 C   0  0  0  0  0  0  0  0  0  0  0  0
   -0.4365    0.8925   -0.0539 N   0  0  0  0  0  0  0  0  0  0  0  0
   -1.4667   -3.3192   -0.6806 C   0  0  0  0  0  0  0  0  0  0  0  0
    0.2215   -3.7373    0.7344 C   0  0  0  0  0  0  0  0  0  0  0  0
    2.4157   -1.2951    0.0517 C   0  0  0  0  0  0  0  0  0  0  0  0
   -1.4486   -4.6640   -0.4418 O   0  0  0  0  0  0  0  0  0  0  0  0
   -0.4249   -4.9068    0.4143 C   0  0  0  0  0  0  0  0  0  0  0  0
    1.9878    2.0142    0.1299 S   0  0  0  0  0  0  0  0  0  0  0  0
   -2.4783   -2.8629   -1.6573 C   0  0  0  0  0  0  0  0  0  0  0  0
    2.6152   -2.3705   -0.8282 C   0  0  0  0  0  0  0  0  0  0  0  0
    3.4762   -0.8559    0.8521 C   0  0  0  0  0  0  0  0  0  0  0  0
    4.7245   -1.4763    0.7543 C   0  0  0  0  0  0  0  0  0  0  0  0
    3.8559   -3.0025   -0.8999 C   0  0  0  0  0  0  0  0  0  0  0  0
    4.9123   -2.5487   -0.1170 C   0  0  0  0  0  0  0  0  0  0  0  0
    1.0625   -3.6490    1.4081 H   0  0  0  0  0  0  0  0  0  0  0  0
   -0.2851   -5.9414    0.6951 H   0  0  0  0  0  0  0  0  0  0  0  0
    3.0638    1.3816   -0.3571 H   0  0  0  0  0  0  0  0  0  0  0  0
   -2.2907   -3.3299   -2.6301 H   0  0  0  0  0  0  0  0  0  0  0  0
   -3.4833   -3.1432   -1.3291 H   0  0  0  0  0  0  0  0  0  0  0  0
   -2.4560   -1.7803   -1.8024 H   0  0  0  0  0  0  0  0  0  0  0  0
    1.8288   -2.7238   -1.4924 H   0  0  0  0  0  0  0  0  0  0  0  0
    3.3571   -0.0592    1.5830 H   0  0  0  0  0  0  0  0  0  0  0  0
    5.5540   -1.1279    1.3654 H   0  0  0  0  0  0  0  0  0  0  0  0
    3.9967   -3.8425   -1.5764 H   0  0  0  0  0  0  0  0  0  0  0  0
    5.8842   -3.0316   -0.1869 H   0  0  0  0  0  0  0  0  0  0  0  0
  2  1  1  0  0  0  0
  3  1  1  0  0  0  0
  4  1  2  0  0  0  0
  5  2  1  0  0  0  0
  6  4  1  0  0  0  0
  6  5  2  0  0  0  0
  7  3  2  0  0  0  0
  8  3  1  0  0  0  0
  8 19  1  0  0  0  0
  9  2  1  0  0  0  0
 10  7  1  0  0  0  0
 10 11  1  0  0  0  0
 11  8  2  0  0  0  0
 11 20  1  0  0  0  0
 12  5  1  0  0  0  0
 12 21  1  0  0  0  0
 13  7  1  0  0  0  0
 13 22  1  0  0  0  0
 13 23  1  0  0  0  0
 13 24  1  0  0  0  0
 14  9  2  0  0  0  0
 14 25  1  0  0  0  0
 15  9  1  0  0  0  0
 15 26  1  0  0  0  0
 16 15  2  0  0  0  0
 16 27  1  0  0  0  0
 17 14  1  0  0  0  0
 17 28  1  0  0  0  0
 18 16  1  0  0  0  0
 18 17  2  0  0  0  0
 18 29  1  0  0  0  0
M  END
>  <Mol_ID>
8301

>  <Formula>
C13H11N3OS

>  <MolWeight>
257.31094

>  <Cat>
P2733

>  <Name>
WAY-343996

>  <Synonyms>
N/A

>  <Target>
Anti-infection

>  <Form>
free base

>  <CAS>
346464-59-3

>  <URL>
N/A

$$$$
