WAY-357980
 OpenBabel08302521393D

 46 49  0  0  0  0  0  0  0  0999 V2000
   -4.0846   -4.0672    0.3352 N   0  0  0  0  0  0  0  0  0  0  0  0
   -4.3663   -2.7760    0.0303 N   0  0  0  0  0  0  0  0  0  0  0  0
   -2.1771   -2.9733   -0.2514 C   0  0  0  0  0  0  0  0  0  0  0  0
   -2.7737   -4.2177    0.0900 C   0  0  0  0  0  0  0  0  0  0  0  0
   -3.2266   -2.0801   -0.2864 C   0  0  0  0  0  0  0  0  0  0  0  0
    1.7494   -2.4497   -1.8385 C   0  0  0  0  0  0  0  0  0  0  0  0
   -0.5295   -1.6830   -1.3218 N   0  0  0  0  0  0  0  0  0  0  0  0
   -2.1602   -5.5494    0.1199 C   0  0  0  0  0  0  0  0  0  0  0  0
   -0.7944   -2.6827   -0.5446 C   0  0  0  0  0  0  0  0  0  0  0  0
   -5.7063   -2.2940    0.0384 C   0  0  0  0  0  0  0  0  0  0  0  0
    0.7730   -1.4677   -1.6990 N   0  0  0  0  0  0  0  0  0  0  0  0
    1.6155   -3.6398   -1.5734 O   0  0  0  0  0  0  0  0  0  0  0  0
    3.0328   -1.9769   -2.4290 C   0  0  0  0  0  0  0  0  0  0  0  0
   -2.5622   -6.4973    1.0732 C   0  0  0  0  0  0  0  0  0  0  0  0
   -1.2129   -5.9189   -0.8493 C   0  0  0  0  0  0  0  0  0  0  0  0
   -1.0972   -8.1341    0.0797 C   0  0  0  0  0  0  0  0  0  0  0  0
   -0.6799   -7.2094   -0.8663 C   0  0  0  0  0  0  0  0  0  0  0  0
   -2.0289   -7.7911    1.0527 C   0  0  0  0  0  0  0  0  0  0  0  0
   -0.6064   -9.3807    0.0461 F   0  0  0  0  0  0  0  0  0  0  0  0
   -6.7538   -3.1641    0.3785 C   0  0  0  0  0  0  0  0  0  0  0  0
   -6.0016   -0.9687   -0.3123 C   0  0  0  0  0  0  0  0  0  0  0  0
    3.4966   -0.6667   -2.2445 C   0  0  0  0  0  0  0  0  0  0  0  0
    3.7878   -2.8793   -3.1899 C   0  0  0  0  0  0  0  0  0  0  0  0
    4.6828   -0.2562   -2.8543 C   0  0  0  0  0  0  0  0  0  0  0  0
   -8.0760   -2.7127    0.3646 C   0  0  0  0  0  0  0  0  0  0  0  0
   -7.3271   -0.5246   -0.3251 C   0  0  0  0  0  0  0  0  0  0  0  0
    4.9727   -2.4638   -3.7971 C   0  0  0  0  0  0  0  0  0  0  0  0
   -8.3615   -1.3950    0.0126 C   0  0  0  0  0  0  0  0  0  0  0  0
    5.4144   -1.1508   -3.6365 C   0  0  0  0  0  0  0  0  0  0  0  0
   -3.2328   -1.0289   -0.5294 H   0  0  0  0  0  0  0  0  0  0  0  0
   -0.0410   -3.3428   -0.0878 H   0  0  0  0  0  0  0  0  0  0  0  0
    0.8894   -0.6089   -2.2290 H   0  0  0  0  0  0  0  0  0  0  0  0
   -3.3043   -6.2387    1.8253 H   0  0  0  0  0  0  0  0  0  0  0  0
   -0.8961   -5.2232   -1.6230 H   0  0  0  0  0  0  0  0  0  0  0  0
    0.0437   -7.4963   -1.6237 H   0  0  0  0  0  0  0  0  0  0  0  0
   -2.3465   -8.5332    1.7778 H   0  0  0  0  0  0  0  0  0  0  0  0
   -6.5564   -4.1999    0.6488 H   0  0  0  0  0  0  0  0  0  0  0  0
   -5.2302   -0.2574   -0.5897 H   0  0  0  0  0  0  0  0  0  0  0  0
    2.9610    0.0385   -1.6153 H   0  0  0  0  0  0  0  0  0  0  0  0
    3.4483   -3.9055   -3.3191 H   0  0  0  0  0  0  0  0  0  0  0  0
    5.0432    0.7613   -2.7164 H   0  0  0  0  0  0  0  0  0  0  0  0
   -8.8828   -3.3932    0.6243 H   0  0  0  0  0  0  0  0  0  0  0  0
   -7.5516    0.5015   -0.6044 H   0  0  0  0  0  0  0  0  0  0  0  0
    5.5509   -3.1638   -4.3957 H   0  0  0  0  0  0  0  0  0  0  0  0
   -9.3911   -1.0468   -0.0019 H   0  0  0  0  0  0  0  0  0  0  0  0
    6.3349   -0.8264   -4.1151 H   0  0  0  0  0  0  0  0  0  0  0  0
  2  1  1  0  0  0  0
  3  4  1  0  0  0  0
  3  5  2  0  0  0  0
  4  1  2  0  0  0  0
  5  2  1  0  0  0  0
  5 30  1  0  0  0  0
  6 11  1  0  0  0  0
  7  9  2  0  0  0  0
  8  4  1  0  0  0  0
  9  3  1  0  0  0  0
  9 31  1  0  0  0  0
 10  2  1  0  0  0  0
 11  7  1  0  0  0  0
 11 32  1  0  0  0  0
 12  6  2  0  0  0  0
 13  6  1  0  0  0  0
 14  8  2  0  0  0  0
 14 33  1  0  0  0  0
 15  8  1  0  0  0  0
 15 34  1  0  0  0  0
 16 17  1  0  0  0  0
 16 18  2  0  0  0  0
 17 15  2  0  0  0  0
 17 35  1  0  0  0  0
 18 14  1  0  0  0  0
 18 36  1  0  0  0  0
 19 16  1  0  0  0  0
 20 10  2  0  0  0  0
 20 37  1  0  0  0  0
 21 10  1  0  0  0  0
 21 38  1  0  0  0  0
 22 13  2  0  0  0  0
 22 39  1  0  0  0  0
 23 13  1  0  0  0  0
 23 40  1  0  0  0  0
 24 22  1  0  0  0  0
 24 29  2  0  0  0  0
 24 41  1  0  0  0  0
 25 20  1  0  0  0  0
 25 28  2  0  0  0  0
 25 42  1  0  0  0  0
 26 21  2  0  0  0  0
 26 43  1  0  0  0  0
 27 23  2  0  0  0  0
 27 44  1  0  0  0  0
 28 26  1  0  0  0  0
 28 45  1  0  0  0  0
 29 27  1  0  0  0  0
 29 46  1  0  0  0  0
M  END
>  <Mol_ID>
8074

>  <Formula>
C23H17FN4O

>  <MolWeight>
384.4056832

>  <Cat>
P2777

>  <Name>
WAY-357980

>  <Synonyms>
N/A

>  <Target>
COX-2

>  <Form>
free base

>  <CAS>
302938-53-0

>  <URL>
N/A

$$$$
