WAY-345171
 OpenBabel08302521443D

 28 30  0  0  0  0  0  0  0  0999 V2000
    0.2792    0.6122   -0.0448 C   0  0  0  0  0  0  0  0  0  0  0  0
   -0.4002   -0.5944    0.0056 C   0  0  0  0  0  0  0  0  0  0  0  0
    1.7294    0.5313   -0.0515 C   0  0  0  0  0  0  0  0  0  0  0  0
   -0.6153    1.7372    0.0102 C   0  0  0  0  0  0  0  0  0  0  0  0
    0.1385   -1.8439    0.0282 N   0  0  0  0  0  0  0  0  0  0  0  0
    2.2216   -0.7499   -0.1167 N   0  0  0  0  0  0  0  0  0  0  0  0
   -2.0881   -0.3803    0.1058 S   0  0  0  0  0  0  0  0  0  0  0  0
   -1.9282    1.3195    0.1322 C   0  0  0  0  0  0  0  0  0  0  0  0
    1.4348   -1.8742   -0.0149 C   0  0  0  0  0  0  0  0  0  0  0  0
   -0.2564    3.2014   -0.0085 C   0  0  0  0  0  0  0  0  0  0  0  0
   -1.1953    4.4230    0.7470 S   0  0  0  0  0  0  0  0  0  0  0  0
    2.5026    1.4763    0.0484 O   0  0  0  0  0  0  0  0  0  0  0  0
    0.8468    3.7456   -0.6326 C   0  0  0  0  0  0  0  0  0  0  0  0
   -0.0406    5.6315    0.3869 C   0  0  0  0  0  0  0  0  0  0  0  0
    0.9893    5.1418   -0.3816 C   0  0  0  0  0  0  0  0  0  0  0  0
    2.1835   -3.1864    0.0502 C   0  0  0  0  0  0  0  0  0  0  0  0
    3.3015   -3.2082    1.4937 S   0  0  0  0  0  0  0  0  0  0  0  0
    2.0686   -3.1025    2.8200 C   0  0  0  0  0  0  0  0  0  0  0  0
    3.2264   -0.8313   -0.0312 H   0  0  0  0  0  0  0  0  0  0  0  0
   -2.8206    1.9268    0.2050 H   0  0  0  0  0  0  0  0  0  0  0  0
    1.5452    3.1840   -1.2385 H   0  0  0  0  0  0  0  0  0  0  0  0
   -0.1801    6.6440    0.7390 H   0  0  0  0  0  0  0  0  0  0  0  0
    1.8116    5.7470   -0.7435 H   0  0  0  0  0  0  0  0  0  0  0  0
    1.4901   -4.0302    0.0993 H   0  0  0  0  0  0  0  0  0  0  0  0
    2.7918   -3.2865   -0.8544 H   0  0  0  0  0  0  0  0  0  0  0  0
    1.5299   -2.1524    2.7769 H   0  0  0  0  0  0  0  0  0  0  0  0
    1.3627   -3.9338    2.7514 H   0  0  0  0  0  0  0  0  0  0  0  0
    2.5794   -3.1587    3.7852 H   0  0  0  0  0  0  0  0  0  0  0  0
  2  1  2  0  0  0  0
  3  1  1  0  0  0  0
  4  1  1  0  0  0  0
  5  2  1  0  0  0  0
  6  3  1  0  0  0  0
  6 19  1  0  0  0  0
  7  2  1  0  0  0  0
  7  8  1  0  0  0  0
  8  4  2  0  0  0  0
  8 20  1  0  0  0  0
  9  6  1  0  0  0  0
  9  5  2  0  0  0  0
 10  4  1  0  0  0  0
 11 10  1  0  0  0  0
 12  3  2  0  0  0  0
 13 10  2  0  0  0  0
 13 21  1  0  0  0  0
 14 11  1  0  0  0  0
 14 15  2  0  0  0  0
 14 22  1  0  0  0  0
 15 13  1  0  0  0  0
 15 23  1  0  0  0  0
 16  9  1  0  0  0  0
 16 24  1  0  0  0  0
 16 25  1  0  0  0  0
 17 16  1  0  0  0  0
 18 17  1  0  0  0  0
 18 26  1  0  0  0  0
 18 27  1  0  0  0  0
 18 28  1  0  0  0  0
M  END
>  <Mol_ID>
9150

>  <Formula>
C12H10N2OS3

>  <MolWeight>
294.4156

>  <Cat>
P2745

>  <Name>
WAY-345171

>  <Synonyms>
N/A

>  <Target>
Androgen Receptor

>  <Form>
free base

>  <CAS>
956140-65-1

>  <URL>
N/A

$$$$
