WAY-605462
 OpenBabel08302521413D

 43 46  0  0  0  0  0  0  0  0999 V2000
    0.0825    1.2821    0.0442 C   0  0  0  0  0  0  0  0  0  0  0  0
    0.2114   -1.1788    0.0384 C   0  0  0  0  0  0  0  0  0  0  0  0
    1.4081   -0.6522    0.1410 N   0  0  0  0  0  0  0  0  0  0  0  0
   -1.0498   -0.0155    0.0087 S   0  0  0  0  0  0  0  0  0  0  0  0
    1.3600    0.7374    0.1243 C   0  0  0  0  0  0  0  0  0  0  0  0
   -0.3942    2.6655    0.0599 C   0  0  0  0  0  0  0  0  0  0  0  0
   -0.0158   -2.5174   -0.0898 N   0  0  0  0  0  0  0  0  0  0  0  0
    2.6046    1.4971    0.1791 C   0  0  0  0  0  0  0  0  0  0  0  0
    0.1576    3.5689    0.6679 O   0  0  0  0  0  0  0  0  0  0  0  0
   -1.6039    3.0472   -0.7377 C   0  0  0  0  0  0  0  0  0  0  0  0
   -0.3577   -5.3509   -0.1021 O   0  0  0  0  0  0  0  0  0  0  0  0
   -1.2760   -3.1233    0.3662 C   0  0  0  0  0  0  0  0  0  0  0  0
    1.1433   -3.4075    0.0753 C   0  0  0  0  0  0  0  0  0  0  0  0
    0.8565   -4.7587   -0.5954 C   0  0  0  0  0  0  0  0  0  0  0  0
   -1.4694   -4.4724   -0.3397 C   0  0  0  0  0  0  0  0  0  0  0  0
    2.7021    2.7343   -0.4619 C   0  0  0  0  0  0  0  0  0  0  0  0
    3.7049    1.0265    0.9137 C   0  0  0  0  0  0  0  0  0  0  0  0
   -1.9605    2.3845   -1.9218 C   0  0  0  0  0  0  0  0  0  0  0  0
   -2.3601    4.1598   -0.3256 C   0  0  0  0  0  0  0  0  0  0  0  0
    4.8210    1.8474    1.1066 C   0  0  0  0  0  0  0  0  0  0  0  0
   -3.0473    2.8179   -2.6769 C   0  0  0  0  0  0  0  0  0  0  0  0
   -3.4412    4.5962   -1.0880 C   0  0  0  0  0  0  0  0  0  0  0  0
    3.8067    3.5560   -0.2634 C   0  0  0  0  0  0  0  0  0  0  0  0
    4.8526    3.1235    0.5395 C   0  0  0  0  0  0  0  0  0  0  0  0
   -3.7773    3.9319   -2.2677 C   0  0  0  0  0  0  0  0  0  0  0  0
   -1.2278   -3.2760    1.4525 H   0  0  0  0  0  0  0  0  0  0  0  0
   -2.1499   -2.5007    0.1491 H   0  0  0  0  0  0  0  0  0  0  0  0
    1.3231   -3.5585    1.1471 H   0  0  0  0  0  0  0  0  0  0  0  0
    2.0504   -2.9843   -0.3708 H   0  0  0  0  0  0  0  0  0  0  0  0
    0.7805   -4.6487   -1.6839 H   0  0  0  0  0  0  0  0  0  0  0  0
    1.6733   -5.4559   -0.3863 H   0  0  0  0  0  0  0  0  0  0  0  0
   -2.3715   -4.9661    0.0339 H   0  0  0  0  0  0  0  0  0  0  0  0
   -1.5881   -4.3313   -1.4212 H   0  0  0  0  0  0  0  0  0  0  0  0
    1.8937    3.1072   -1.0782 H   0  0  0  0  0  0  0  0  0  0  0  0
    3.6849    0.0404    1.3737 H   0  0  0  0  0  0  0  0  0  0  0  0
   -1.3968    1.5312   -2.2856 H   0  0  0  0  0  0  0  0  0  0  0  0
   -2.0933    4.6914    0.5855 H   0  0  0  0  0  0  0  0  0  0  0  0
    5.6422    1.5123    1.7322 H   0  0  0  0  0  0  0  0  0  0  0  0
   -3.3091    2.2986   -3.5950 H   0  0  0  0  0  0  0  0  0  0  0  0
   -4.0126    5.4654   -0.7714 H   0  0  0  0  0  0  0  0  0  0  0  0
    3.8155    4.5511   -0.7015 H   0  0  0  0  0  0  0  0  0  0  0  0
    5.6906    3.7865    0.7382 H   0  0  0  0  0  0  0  0  0  0  0  0
   -4.6013    4.2901   -2.8764 H   0  0  0  0  0  0  0  0  0  0  0  0
  2  4  1  0  0  0  0
  3  5  1  0  0  0  0
  3  2  2  0  0  0  0
  4  1  1  0  0  0  0
  5  1  2  0  0  0  0
  6  1  1  0  0  0  0
  7  2  1  0  0  0  0
  8  5  1  0  0  0  0
  9  6  2  0  0  0  0
 10  6  1  0  0  0  0
 11 14  1  0  0  0  0
 11 15  1  0  0  0  0
 12  7  1  0  0  0  0
 12 26  1  0  0  0  0
 12 27  1  0  0  0  0
 13  7  1  0  0  0  0
 13 28  1  0  0  0  0
 13 29  1  0  0  0  0
 14 13  1  0  0  0  0
 14 30  1  0  0  0  0
 14 31  1  0  0  0  0
 15 12  1  0  0  0  0
 15 32  1  0  0  0  0
 15 33  1  0  0  0  0
 16  8  2  0  0  0  0
 16 34  1  0  0  0  0
 17  8  1  0  0  0  0
 17 35  1  0  0  0  0
 18 10  2  0  0  0  0
 18 36  1  0  0  0  0
 19 10  1  0  0  0  0
 19 37  1  0  0  0  0
 20 17  2  0  0  0  0
 20 38  1  0  0  0  0
 21 18  1  0  0  0  0
 21 39  1  0  0  0  0
 22 19  2  0  0  0  0
 22 40  1  0  0  0  0
 23 16  1  0  0  0  0
 23 41  1  0  0  0  0
 24 20  1  0  0  0  0
 24 23  2  0  0  0  0
 24 42  1  0  0  0  0
 25 22  1  0  0  0  0
 25 21  2  0  0  0  0
 25 43  1  0  0  0  0
M  END
>  <Mol_ID>
8469

>  <Formula>
C20H18N2O2S

>  <MolWeight>
350.43412

>  <Cat>
P2852

>  <Name>
WAY-605462

>  <Synonyms>
N/A

>  <Target>
5-LOX

>  <Form>
free base

>  <CAS>
55040-82-9

>  <URL>
N/A

$$$$
