WAY-656627
 OpenBabel08302521423D

 48 51  0  0  0  0  0  0  0  0999 V2000
    1.3556   -0.3997    0.1840 C   0  0  0  0  0  0  0  0  0  0  0  0
    0.4686   -0.5077    1.2747 C   0  0  0  0  0  0  0  0  0  0  0  0
    0.8094   -0.8873    2.5698 N   0  0  0  0  0  0  0  0  0  0  0  0
    2.7498   -0.4497    0.3365 N   0  0  0  0  0  0  0  0  0  0  0  0
    3.5105   -1.3807   -0.3486 C   0  0  0  0  0  0  0  0  0  0  0  0
    0.8998   -0.1070   -1.1171 C   0  0  0  0  0  0  0  0  0  0  0  0
    7.1244    1.4085   -1.6381 C   0  0  0  0  0  0  0  0  0  0  0  0
   -0.9029   -0.3192    0.9707 C   0  0  0  0  0  0  0  0  0  0  0  0
    7.3300    0.8544   -2.9080 C   0  0  0  0  0  0  0  0  0  0  0  0
    6.3446    0.7355   -0.7003 C   0  0  0  0  0  0  0  0  0  0  0  0
    7.6913    2.5950   -1.2395 O   0  0  0  0  0  0  0  0  0  0  0  0
    8.2145    1.3759   -3.8178 O   0  0  0  0  0  0  0  0  0  0  0  0
    3.0800   -2.2249   -1.1310 O   0  0  0  0  0  0  0  0  0  0  0  0
    5.7300   -0.4733   -1.0514 C   0  0  0  0  0  0  0  0  0  0  0  0
    4.9897   -1.2925   -0.0304 C   0  0  0  0  0  0  0  0  0  0  0  0
    1.2691   -1.8123    5.2456 O   0  0  0  0  0  0  0  0  0  0  0  0
    6.6425   -0.2883   -3.2941 C   0  0  0  0  0  0  0  0  0  0  0  0
   -0.4550    0.0925   -1.3635 C   0  0  0  0  0  0  0  0  0  0  0  0
   -1.3531   -0.0196   -0.3207 C   0  0  0  0  0  0  0  0  0  0  0  0
    5.8353   -0.9468   -2.3704 C   0  0  0  0  0  0  0  0  0  0  0  0
    2.0217   -1.6538    2.9001 C   0  0  0  0  0  0  0  0  0  0  0  0
    0.2105   -0.1983    3.7305 C   0  0  0  0  0  0  0  0  0  0  0  0
    8.2903    3.2763   -2.3520 C   0  0  0  0  0  0  0  0  0  0  0  0
    1.7769   -2.5540    4.1264 C   0  0  0  0  0  0  0  0  0  0  0  0
    0.0227   -1.1918    4.8912 C   0  0  0  0  0  0  0  0  0  0  0  0
    9.1070    2.2930   -3.1724 C   0  0  0  0  0  0  0  0  0  0  0  0
    3.1372    0.0463    1.1302 H   0  0  0  0  0  0  0  0  0  0  0  0
    1.6080   -0.0054   -1.9299 H   0  0  0  0  0  0  0  0  0  0  0  0
   -1.6570   -0.4763    1.7320 H   0  0  0  0  0  0  0  0  0  0  0  0
    6.2399    1.1494    0.2988 H   0  0  0  0  0  0  0  0  0  0  0  0
    5.1408   -0.8981    0.9818 H   0  0  0  0  0  0  0  0  0  0  0  0
    5.4045   -2.3082   -0.0157 H   0  0  0  0  0  0  0  0  0  0  0  0
    6.7569   -0.6876   -4.2978 H   0  0  0  0  0  0  0  0  0  0  0  0
   -0.7861    0.3357   -2.3693 H   0  0  0  0  0  0  0  0  0  0  0  0
   -2.4194    0.0978   -0.5055 H   0  0  0  0  0  0  0  0  0  0  0  0
    5.3105   -1.8524   -2.6733 H   0  0  0  0  0  0  0  0  0  0  0  0
    2.8307   -0.9513    3.1281 H   0  0  0  0  0  0  0  0  0  0  0  0
    2.3293   -2.3076    2.0784 H   0  0  0  0  0  0  0  0  0  0  0  0
    0.8971    0.5980    4.0420 H   0  0  0  0  0  0  0  0  0  0  0  0
   -0.7548    0.2683    3.5134 H   0  0  0  0  0  0  0  0  0  0  0  0
    8.9271    4.0723   -1.9552 H   0  0  0  0  0  0  0  0  0  0  0  0
    7.4966    3.7358   -2.9547 H   0  0  0  0  0  0  0  0  0  0  0  0
    1.0730   -3.3592    3.8846 H   0  0  0  0  0  0  0  0  0  0  0  0
    2.7183   -3.0193    4.4354 H   0  0  0  0  0  0  0  0  0  0  0  0
   -0.3510   -0.6674    5.7764 H   0  0  0  0  0  0  0  0  0  0  0  0
   -0.7040   -1.9692    4.6321 H   0  0  0  0  0  0  0  0  0  0  0  0
    9.8101    1.7269   -2.5451 H   0  0  0  0  0  0  0  0  0  0  0  0
    9.6794    2.8072   -3.9497 H   0  0  0  0  0  0  0  0  0  0  0  0
  2  1  1  0  0  0  0
  3  2  1  0  0  0  0
  4  1  1  0  0  0  0
  4 27  1  0  0  0  0
  5  4  1  0  0  0  0
  6  1  2  0  0  0  0
  6 28  1  0  0  0  0
  7 10  2  0  0  0  0
  8  2  2  0  0  0  0
  8 19  1  0  0  0  0
  8 29  1  0  0  0  0
  9 17  2  0  0  0  0
  9  7  1  0  0  0  0
 10 14  1  0  0  0  0
 10 30  1  0  0  0  0
 11  7  1  0  0  0  0
 12  9  1  0  0  0  0
 13  5  2  0  0  0  0
 14 15  1  0  0  0  0
 15  5  1  0  0  0  0
 15 31  1  0  0  0  0
 15 32  1  0  0  0  0
 16 25  1  0  0  0  0
 16 24  1  0  0  0  0
 17 20  1  0  0  0  0
 17 33  1  0  0  0  0
 18  6  1  0  0  0  0
 18 34  1  0  0  0  0
 19 18  2  0  0  0  0
 19 35  1  0  0  0  0
 20 14  2  0  0  0  0
 20 36  1  0  0  0  0
 21  3  1  0  0  0  0
 21 37  1  0  0  0  0
 21 38  1  0  0  0  0
 22  3  1  0  0  0  0
 22 39  1  0  0  0  0
 22 40  1  0  0  0  0
 23 11  1  0  0  0  0
 23 26  1  0  0  0  0
 23 41  1  0  0  0  0
 23 42  1  0  0  0  0
 24 21  1  0  0  0  0
 24 43  1  0  0  0  0
 24 44  1  0  0  0  0
 25 22  1  0  0  0  0
 25 45  1  0  0  0  0
 25 46  1  0  0  0  0
 26 12  1  0  0  0  0
 26 47  1  0  0  0  0
 26 48  1  0  0  0  0
M  END
>  <Mol_ID>
8532

>  <Formula>
C20H21ClN2O4

>  <MolWeight>
388.84474

>  <Cat>
P3143

>  <Name>
WAY-656627

>  <Synonyms>
N/A

>  <Target>
Anti-infection

>  <Form>
free base

>  <CAS>
852845-92-2

>  <URL>
N/A

$$$$
