WAY-311669
 OpenBabel08302521403D

 52 55  0  0  0  0  0  0  0  0999 V2000
    0.6757   -1.6003   -0.8396 C   0  0  3  0  0  0  0  0  0  0  0  0
   -0.2538   -0.4294   -0.5161 C   0  0  0  0  0  0  0  0  0  0  0  0
    2.1401   -1.2891   -0.4708 C   0  0  0  0  0  0  0  0  0  0  0  0
    0.5204   -2.1110   -2.2766 C   0  0  0  0  0  0  0  0  0  0  0  0
    0.2279    0.8152   -0.3238 C   0  0  0  0  0  0  0  0  0  0  0  0
   -1.7025   -0.6968   -0.2970 C   0  0  0  0  0  0  0  0  0  0  0  0
    2.5264   -0.0061   -0.2458 C   0  0  0  0  0  0  0  0  0  0  0  0
    3.0856   -2.4391   -0.3789 C   0  0  0  0  0  0  0  0  0  0  0  0
    0.1833   -3.3878   -2.6903 C   0  0  0  0  0  0  0  0  0  0  0  0
    0.7625   -1.0725   -3.6267 S   0  0  0  0  0  0  0  0  0  0  0  0
    1.5919    1.0221   -0.3311 N   0  0  0  0  0  0  0  0  0  0  0  0
   -0.6384    2.0189   -0.0481 C   0  0  0  0  0  0  0  0  0  0  0  0
   -2.5632    0.4392    0.2156 C   0  0  0  0  0  0  0  0  0  0  0  0
   -2.1521   -1.8357   -0.4210 O   0  0  0  0  0  0  0  0  0  0  0  0
    3.9012    0.4676    0.1573 C   0  0  0  0  0  0  0  0  0  0  0  0
    2.4264   -3.5711   -0.0303 O   0  0  0  0  0  0  0  0  0  0  0  0
    4.2886   -2.3667   -0.5765 O   0  0  0  0  0  0  0  0  0  0  0  0
    0.1112   -3.5060   -4.1087 C   0  0  0  0  0  0  0  0  0  0  0  0
    0.3943   -2.3165   -4.7400 C   0  0  0  0  0  0  0  0  0  0  0  0
   -2.1086    1.7693   -0.3595 C   0  0  0  0  0  0  0  0  0  0  0  0
    3.2276   -4.7527    0.1547 C   0  0  0  0  0  0  0  0  0  0  0  0
    2.8243   -5.3914    1.4617 C   0  0  0  0  0  0  0  0  0  0  0  0
    1.5036   -5.8153    1.6655 C   0  0  0  0  0  0  0  0  0  0  0  0
    3.7448   -5.5433    2.5060 C   0  0  0  0  0  0  0  0  0  0  0  0
    1.0971   -6.3280    2.9032 C   0  0  0  0  0  0  0  0  0  0  0  0
    3.3359   -6.0583    3.7410 C   0  0  0  0  0  0  0  0  0  0  0  0
    2.0075   -6.4317    3.9543 C   0  0  0  0  0  0  0  0  0  0  0  0
    1.7265   -6.8731    5.2184 O   0  0  0  0  0  0  0  0  0  0  0  0
    0.3577   -7.1214    5.5175 C   0  0  0  0  0  0  0  0  0  0  0  0
    0.3508   -2.4098   -0.1697 H   0  0  0  0  0  0  0  0  0  0  0  0
   -0.0159   -4.2008   -2.0022 H   0  0  0  0  0  0  0  0  0  0  0  0
    1.9194    1.9559   -0.0940 H   0  0  0  0  0  0  0  0  0  0  0  0
   -0.5248    2.2963    1.0073 H   0  0  0  0  0  0  0  0  0  0  0  0
   -0.2941    2.8728   -0.6448 H   0  0  0  0  0  0  0  0  0  0  0  0
   -2.5029    0.4482    1.3106 H   0  0  0  0  0  0  0  0  0  0  0  0
   -3.6030    0.2534   -0.0706 H   0  0  0  0  0  0  0  0  0  0  0  0
    4.3059    1.1371   -0.6095 H   0  0  0  0  0  0  0  0  0  0  0  0
    3.8261    1.0363    1.0924 H   0  0  0  0  0  0  0  0  0  0  0  0
    4.6305   -0.3195    0.3382 H   0  0  0  0  0  0  0  0  0  0  0  0
   -0.1446   -4.4153   -4.6388 H   0  0  0  0  0  0  0  0  0  0  0  0
    0.4038   -2.1183   -5.8035 H   0  0  0  0  0  0  0  0  0  0  0  0
   -2.7169    2.5860    0.0464 H   0  0  0  0  0  0  0  0  0  0  0  0
   -2.2571    1.7686   -1.4470 H   0  0  0  0  0  0  0  0  0  0  0  0
    3.0194   -5.4456   -0.6683 H   0  0  0  0  0  0  0  0  0  0  0  0
    4.3048   -4.5469    0.1498 H   0  0  0  0  0  0  0  0  0  0  0  0
    0.7746   -5.7295    0.8623 H   0  0  0  0  0  0  0  0  0  0  0  0
    4.7837   -5.2479    2.3770 H   0  0  0  0  0  0  0  0  0  0  0  0
    0.0597   -6.6257    3.0123 H   0  0  0  0  0  0  0  0  0  0  0  0
    4.0562   -6.1521    4.5507 H   0  0  0  0  0  0  0  0  0  0  0  0
   -0.2510   -6.2207    5.3804 H   0  0  0  0  0  0  0  0  0  0  0  0
   -0.0282   -7.9539    4.9205 H   0  0  0  0  0  0  0  0  0  0  0  0
    0.2912   -7.4093    6.5711 H   0  0  0  0  0  0  0  0  0  0  0  0
  1  2  1  0  0  0  0
  1  3  1  0  0  0  0
  1  4  1  0  0  0  0
  1 30  1  0  0  0  0
  2  5  2  0  0  0  0
  2  6  1  0  0  0  0
  3  7  2  0  0  0  0
  3  8  1  0  0  0  0
  4  9  2  0  0  0  0
  4 10  1  0  0  0  0
  5 11  1  0  0  0  0
  5 12  1  0  0  0  0
  6 13  1  0  0  0  0
  6 14  2  0  0  0  0
  7 15  1  0  0  0  0
  7 11  1  0  0  0  0
  8 16  1  0  0  0  0
  8 17  2  0  0  0  0
  9 18  1  0  0  0  0
  9 31  1  0  0  0  0
 10 19  1  0  0  0  0
 11 32  1  0  0  0  0
 12 20  1  0  0  0  0
 12 33  1  0  0  0  0
 12 34  1  0  0  0  0
 13 20  1  0  0  0  0
 13 35  1  0  0  0  0
 13 36  1  0  0  0  0
 15 37  1  0  0  0  0
 15 38  1  0  0  0  0
 15 39  1  0  0  0  0
 16 21  1  0  0  0  0
 18 19  2  0  0  0  0
 18 40  1  0  0  0  0
 19 41  1  0  0  0  0
 20 42  1  0  0  0  0
 20 43  1  0  0  0  0
 21 22  1  0  0  0  0
 21 44  1  0  0  0  0
 21 45  1  0  0  0  0
 22 23  2  0  0  0  0
 22 24  1  0  0  0  0
 23 25  1  0  0  0  0
 23 46  1  0  0  0  0
 24 26  2  0  0  0  0
 24 47  1  0  0  0  0
 25 27  2  0  0  0  0
 25 48  1  0  0  0  0
 26 27  1  0  0  0  0
 26 49  1  0  0  0  0
 27 28  1  0  0  0  0
 28 29  1  0  0  0  0
 29 50  1  0  0  0  0
 29 51  1  0  0  0  0
 29 52  1  0  0  0  0
M  END
>  <Mol_ID>
8321

>  <Formula>
C23H23NO4S

>  <MolWeight>
409.49802

>  <Cat>
P2213

>  <Name>
WAY-311669

>  <Synonyms>
N/A

>  <Target>
beta-amyloid

>  <Form>
free base

>  <CAS>
347316-73-8

>  <URL>
N/A

$$$$
