WAY-658979
 OpenBabel08302521433D

 41 43  0  0  0  0  0  0  0  0999 V2000
   -0.3829    1.0868   -0.0630 N   0  0  0  0  0  0  0  0  0  0  0  0
   -0.4520   -1.1328   -0.1274 C   0  0  0  0  0  0  0  0  0  0  0  0
   -1.2327   -0.0005   -0.0765 C   0  0  0  0  0  0  0  0  0  0  0  0
    0.9130    0.6948   -0.1320 N   0  0  0  0  0  0  0  0  0  0  0  0
   -4.6547   -5.4284    0.4480 C   0  0  0  0  0  0  0  0  0  0  0  0
   -3.8485   -4.7811   -0.6317 C   0  0  3  0  0  0  0  0  0  0  0  0
    0.8785   -0.6439   -0.1321 C   0  0  0  0  0  0  0  0  0  0  0  0
   -3.6760   -5.5702   -1.8904 C   0  0  0  0  0  0  0  0  0  0  0  0
   -0.9062   -2.4875   -0.1392 C   0  0  0  0  0  0  0  0  0  0  0  0
   -4.4892   -6.7712   -2.0994 C   0  0  0  0  0  0  0  0  0  0  0  0
   -5.3786   -6.5365    0.1284 O   0  0  0  0  0  0  0  0  0  0  0  0
   -5.3009   -7.1767   -1.1219 C   0  0  0  0  0  0  0  0  0  0  0  0
   -2.1861   -2.8940   -0.1103 C   0  0  0  0  0  0  0  0  0  0  0  0
   -2.4999   -4.3540   -0.1044 C   0  0  0  0  0  0  0  0  0  0  0  0
   -0.7288    2.4668    0.0242 C   0  0  0  0  0  0  0  0  0  0  0  0
   -4.7539   -4.9220    1.5644 O   0  0  0  0  0  0  0  0  0  0  0  0
   -2.9371   -5.1996   -2.8009 O   0  0  0  0  0  0  0  0  0  0  0  0
   -1.6735   -5.1744    0.2945 O   0  0  0  0  0  0  0  0  0  0  0  0
    2.1630   -1.3912   -0.1161 C   0  0  0  0  0  0  0  0  0  0  0  0
   -6.2015   -8.3639   -1.2590 C   0  0  0  0  0  0  0  0  0  0  0  0
   -2.0595    2.8691    0.2127 C   0  0  0  0  0  0  0  0  0  0  0  0
    0.2757    3.4429   -0.0661 C   0  0  0  0  0  0  0  0  0  0  0  0
   -0.0490    4.7996    0.0223 C   0  0  0  0  0  0  0  0  0  0  0  0
   -2.3756    4.2276    0.3096 C   0  0  0  0  0  0  0  0  0  0  0  0
   -1.3729    5.1903    0.2122 C   0  0  0  0  0  0  0  0  0  0  0  0
   -2.3024    0.1230   -0.0422 H   0  0  0  0  0  0  0  0  0  0  0  0
   -4.4267   -3.8956   -0.9280 H   0  0  0  0  0  0  0  0  0  0  0  0
   -0.1341   -3.2558   -0.1746 H   0  0  0  0  0  0  0  0  0  0  0  0
   -4.4068   -7.2674   -3.0582 H   0  0  0  0  0  0  0  0  0  0  0  0
   -3.0204   -2.2050   -0.1016 H   0  0  0  0  0  0  0  0  0  0  0  0
    2.7592   -1.1551   -1.0033 H   0  0  0  0  0  0  0  0  0  0  0  0
    2.7445   -1.1185    0.7714 H   0  0  0  0  0  0  0  0  0  0  0  0
    2.0113   -2.4735   -0.0905 H   0  0  0  0  0  0  0  0  0  0  0  0
   -5.9910   -9.0983   -0.4755 H   0  0  0  0  0  0  0  0  0  0  0  0
   -7.2475   -8.0529   -1.1720 H   0  0  0  0  0  0  0  0  0  0  0  0
   -6.0802   -8.8612   -2.2277 H   0  0  0  0  0  0  0  0  0  0  0  0
   -2.8724    2.1563    0.3065 H   0  0  0  0  0  0  0  0  0  0  0  0
    1.3170    3.1614   -0.2139 H   0  0  0  0  0  0  0  0  0  0  0  0
    0.7340    5.5496   -0.0545 H   0  0  0  0  0  0  0  0  0  0  0  0
   -3.4068    4.5345    0.4663 H   0  0  0  0  0  0  0  0  0  0  0  0
   -1.6228    6.2455    0.2880 H   0  0  0  0  0  0  0  0  0  0  0  0
  2  3  2  0  0  0  0
  3  1  1  0  0  0  0
  3 26  1  0  0  0  0
  4  1  1  0  0  0  0
  5  6  1  0  0  0  0
  6 14  1  0  0  0  0
  6 27  1  0  0  0  0
  7  4  2  0  0  0  0
  7  2  1  0  0  0  0
  8  6  1  0  0  0  0
  9  2  1  0  0  0  0
  9 28  1  0  0  0  0
 10  8  1  0  0  0  0
 10 29  1  0  0  0  0
 11  5  1  0  0  0  0
 12 10  2  0  0  0  0
 12 11  1  0  0  0  0
 13  9  2  0  0  0  0
 13 30  1  0  0  0  0
 14 13  1  0  0  0  0
 15  1  1  0  0  0  0
 16  5  2  0  0  0  0
 17  8  2  0  0  0  0
 18 14  2  0  0  0  0
 19  7  1  0  0  0  0
 19 31  1  0  0  0  0
 19 32  1  0  0  0  0
 19 33  1  0  0  0  0
 20 12  1  0  0  0  0
 20 34  1  0  0  0  0
 20 35  1  0  0  0  0
 20 36  1  0  0  0  0
 21 15  2  0  0  0  0
 21 37  1  0  0  0  0
 22 15  1  0  0  0  0
 22 38  1  0  0  0  0
 23 22  2  0  0  0  0
 23 39  1  0  0  0  0
 24 21  1  0  0  0  0
 24 40  1  0  0  0  0
 25 23  1  0  0  0  0
 25 24  2  0  0  0  0
 25 41  1  0  0  0  0
M  END
>  <Mol_ID>
8836

>  <Formula>
C19H15ClN2O4

>  <MolWeight>
370.7864

>  <Cat>
P3180

>  <Name>
WAY-658979

>  <Synonyms>
N/A

>  <Target>
Anti-infection

>  <Form>
free base

>  <CAS>
863614-80-6

>  <URL>
N/A

$$$$
