WAY-325606
 OpenBabel08302521433D

 37 40  0  0  0  0  0  0  0  0999 V2000
   -0.2401   -0.7216    0.1275 C   0  0  0  0  0  0  0  0  0  0  0  0
   -0.2924    0.6424   -0.0325 N   0  0  0  0  0  0  0  0  0  0  0  0
    0.8798    1.4985   -0.1890 C   0  0  3  0  0  0  0  0  0  0  0  0
   -1.4591   -1.1925    0.1755 N   0  0  0  0  0  0  0  0  0  0  0  0
    0.9431   -1.3660    0.2099 N   0  0  0  0  0  0  0  0  0  0  0  0
    2.1278    0.7511    0.3262 C   0  0  0  0  0  0  0  0  0  0  0  0
   -1.5638    1.0864   -0.0703 N   0  0  0  0  0  0  0  0  0  0  0  0
    2.1272   -0.6661   -0.2799 C   0  0  3  0  0  0  0  0  0  0  0  0
    1.0794    1.8921   -1.6243 C   0  0  0  0  0  0  0  0  0  0  0  0
   -2.2308   -0.0660    0.0579 C   0  0  0  0  0  0  0  0  0  0  0  0
    2.1470    2.7129   -1.8675 O   0  0  0  0  0  0  0  0  0  0  0  0
    3.3807   -1.4530    0.0242 C   0  0  0  0  0  0  0  0  0  0  0  0
    0.4802    1.5527   -2.8217 C   0  0  0  0  0  0  0  0  0  0  0  0
    2.2400    2.8644   -3.2126 C   0  0  0  0  0  0  0  0  0  0  0  0
    1.2437    2.1613   -3.8448 C   0  0  0  0  0  0  0  0  0  0  0  0
    3.8039   -1.6991    1.3358 C   0  0  0  0  0  0  0  0  0  0  0  0
    4.1504   -1.9592   -1.0368 C   0  0  0  0  0  0  0  0  0  0  0  0
    5.3099   -2.6963   -0.7929 C   0  0  0  0  0  0  0  0  0  0  0  0
    4.9672   -2.4337    1.5790 C   0  0  0  0  0  0  0  0  0  0  0  0
    5.7244   -2.9437    0.5179 C   0  0  0  0  0  0  0  0  0  0  0  0
    6.9527   -3.7567    0.7960 C   0  0  0  0  0  0  0  0  0  0  0  0
    0.7040    2.3936    0.4181 H   0  0  0  0  0  0  0  0  0  0  0  0
    0.9340   -2.3745    0.0833 H   0  0  0  0  0  0  0  0  0  0  0  0
    2.0795    0.6947    1.4229 H   0  0  0  0  0  0  0  0  0  0  0  0
    3.0525    1.2867    0.0791 H   0  0  0  0  0  0  0  0  0  0  0  0
    2.0460   -0.5952   -1.3725 H   0  0  0  0  0  0  0  0  0  0  0  0
   -3.3131   -0.0910    0.0616 H   0  0  0  0  0  0  0  0  0  0  0  0
   -0.3853    0.9106   -2.9444 H   0  0  0  0  0  0  0  0  0  0  0  0
    3.0583    3.4814   -3.5582 H   0  0  0  0  0  0  0  0  0  0  0  0
    1.0901    2.0928   -4.9126 H   0  0  0  0  0  0  0  0  0  0  0  0
    3.2252   -1.3290    2.1794 H   0  0  0  0  0  0  0  0  0  0  0  0
    3.8513   -1.7854   -2.0691 H   0  0  0  0  0  0  0  0  0  0  0  0
    5.8819   -3.0790   -1.6354 H   0  0  0  0  0  0  0  0  0  0  0  0
    5.2761   -2.6141    2.6063 H   0  0  0  0  0  0  0  0  0  0  0  0
    7.6780   -3.1655    1.3640 H   0  0  0  0  0  0  0  0  0  0  0  0
    6.6866   -4.6510    1.3687 H   0  0  0  0  0  0  0  0  0  0  0  0
    7.4364   -4.0843   -0.1303 H   0  0  0  0  0  0  0  0  0  0  0  0
  2  1  1  0  0  0  0
  3  2  1  0  0  0  0
  3 22  1  0  0  0  0
  4  1  2  0  0  0  0
  5  1  1  0  0  0  0
  5 23  1  0  0  0  0
  6  8  1  0  0  0  0
  6  3  1  0  0  0  0
  6 24  1  0  0  0  0
  6 25  1  0  0  0  0
  7  2  1  0  0  0  0
  8  5  1  0  0  0  0
  8 26  1  0  0  0  0
  9  3  1  0  0  0  0
 10  4  1  0  0  0  0
 10  7  2  0  0  0  0
 10 27  1  0  0  0  0
 11  9  1  0  0  0  0
 12  8  1  0  0  0  0
 13  9  2  0  0  0  0
 13 28  1  0  0  0  0
 14 11  1  0  0  0  0
 14 15  2  0  0  0  0
 14 29  1  0  0  0  0
 15 13  1  0  0  0  0
 15 30  1  0  0  0  0
 16 12  2  0  0  0  0
 16 31  1  0  0  0  0
 17 12  1  0  0  0  0
 17 32  1  0  0  0  0
 18 17  2  0  0  0  0
 18 33  1  0  0  0  0
 19 16  1  0  0  0  0
 19 34  1  0  0  0  0
 20 18  1  0  0  0  0
 20 19  2  0  0  0  0
 21 20  1  0  0  0  0
 21 35  1  0  0  0  0
 21 36  1  0  0  0  0
 21 37  1  0  0  0  0
M  END
>  <Mol_ID>
8864

>  <Formula>
C16H16N4O

>  <MolWeight>
280.32444

>  <Cat>
P2412

>  <Name>
WAY-325606

>  <Synonyms>
N/A

>  <Target>
Androgen Receptor

>  <Form>
free base

>  <CAS>
869351-84-8

>  <URL>
N/A

$$$$
