WAY-332054
 OpenBabel08302521443D

 54 56  0  0  0  0  0  0  0  0999 V2000
   -1.5818    3.7231    1.3105 N   0  0  0  0  0  0  0  0  0  0  0  0
   -0.2839    3.2813    1.1425 C   0  0  0  0  0  0  0  0  0  0  0  0
   -1.6303    4.1418    2.5609 C   0  0  0  0  0  0  0  0  0  0  0  0
   -0.4470    4.0021    3.2375 O   0  0  0  0  0  0  0  0  0  0  0  0
    0.4046    3.4418    2.3276 C   0  0  0  0  0  0  0  0  0  0  0  0
    1.2844    5.3624   -1.5118 C   0  0  0  0  0  0  0  0  0  0  0  0
    3.1085    5.0366   -5.2230 N   0  0  0  0  0  0  0  0  0  0  0  0
    1.8418    5.6684   -2.7423 N   0  0  0  0  0  0  0  0  0  0  0  0
    3.8033    5.2633   -6.3946 C   0  0  0  0  0  0  0  0  0  0  0  0
   -0.2106    5.1482   -1.4011 C   0  0  0  0  0  0  0  0  0  0  0  0
   -0.6772    3.4060   -1.5906 S   0  0  3  0  0  0  0  0  0  0  0  0
    0.1951    2.7182   -0.1459 C   0  0  0  0  0  0  0  0  0  0  0  0
   -2.7624    4.6825    3.3069 C   0  0  0  0  0  0  0  0  0  0  0  0
    3.8265    4.8245   -3.9641 C   0  0  0  0  0  0  0  0  0  0  0  0
    1.6513    4.9410   -5.1230 C   0  0  0  0  0  0  0  0  0  0  0  0
    3.3043    5.7676   -2.8676 C   0  0  0  0  0  0  0  0  0  0  0  0
    1.1203    5.8650   -4.0128 C   0  0  0  0  0  0  0  0  0  0  0  0
    5.0239    5.3284   -6.4540 O   0  0  0  0  0  0  0  0  0  0  0  0
    1.9820    5.2402   -0.4984 O   0  0  0  0  0  0  0  0  0  0  0  0
   -0.0360    2.8723   -2.8396 O   0  0  0  0  0  0  0  0  0  0  0  0
   -4.0247    4.7561    2.6969 C   0  0  0  0  0  0  0  0  0  0  0  0
   -2.6360    5.1128    4.6359 C   0  0  0  0  0  0  0  0  0  0  0  0
    2.9877    5.4285   -7.4772 O   0  0  0  0  0  0  0  0  0  0  0  0
   -4.9955    5.6333    4.7277 C   0  0  0  0  0  0  0  0  0  0  0  0
   -5.1346    5.2280    3.4021 C   0  0  0  0  0  0  0  0  0  0  0  0
   -3.7469    5.5794    5.3437 C   0  0  0  0  0  0  0  0  0  0  0  0
    1.7704    3.1429    2.7921 C   0  0  0  0  0  0  0  0  0  0  0  0
    3.6939    5.6896   -8.6994 C   0  0  0  0  0  0  0  0  0  0  0  0
    2.7008    5.8606   -9.8352 C   0  0  0  0  0  0  0  0  0  0  0  0
   -0.7685    5.7280   -2.1356 H   0  0  0  0  0  0  0  0  0  0  0  0
   -0.5524    5.5219   -0.4316 H   0  0  0  0  0  0  0  0  0  0  0  0
    1.2719    2.8497   -0.2773 H   0  0  0  0  0  0  0  0  0  0  0  0
    0.0016    1.6397   -0.1508 H   0  0  0  0  0  0  0  0  0  0  0  0
    3.6522    3.7823   -3.6692 H   0  0  0  0  0  0  0  0  0  0  0  0
    4.9048    4.9592   -4.0930 H   0  0  0  0  0  0  0  0  0  0  0  0
    1.1628    5.1820   -6.0701 H   0  0  0  0  0  0  0  0  0  0  0  0
    1.4179    3.8976   -4.8821 H   0  0  0  0  0  0  0  0  0  0  0  0
    3.5308    6.8084   -3.1281 H   0  0  0  0  0  0  0  0  0  0  0  0
    3.8054    5.5456   -1.9205 H   0  0  0  0  0  0  0  0  0  0  0  0
    1.2869    6.9118   -4.2966 H   0  0  0  0  0  0  0  0  0  0  0  0
    0.0455    5.7230   -3.9119 H   0  0  0  0  0  0  0  0  0  0  0  0
   -4.1508    4.4309    1.6652 H   0  0  0  0  0  0  0  0  0  0  0  0
   -1.6704    5.0796    5.1361 H   0  0  0  0  0  0  0  0  0  0  0  0
   -5.8603    5.9890    5.2817 H   0  0  0  0  0  0  0  0  0  0  0  0
   -6.1074    5.2700    2.9187 H   0  0  0  0  0  0  0  0  0  0  0  0
   -3.6364    5.8934    6.3785 H   0  0  0  0  0  0  0  0  0  0  0  0
    2.2698    4.0529    3.1375 H   0  0  0  0  0  0  0  0  0  0  0  0
    1.7406    2.4299    3.6224 H   0  0  0  0  0  0  0  0  0  0  0  0
    2.3751    2.7034    1.9936 H   0  0  0  0  0  0  0  0  0  0  0  0
    4.2808    6.6089   -8.5931 H   0  0  0  0  0  0  0  0  0  0  0  0
    4.3612    4.8504   -8.9258 H   0  0  0  0  0  0  0  0  0  0  0  0
    2.0933    4.9589   -9.9625 H   0  0  0  0  0  0  0  0  0  0  0  0
    2.0121    6.6868   -9.6308 H   0  0  0  0  0  0  0  0  0  0  0  0
    3.2228    6.0657  -10.7752 H   0  0  0  0  0  0  0  0  0  0  0  0
  2  1  1  0  0  0  0
  3  1  2  0  0  0  0
  4  3  1  0  0  0  0
  5  2  2  0  0  0  0
  5  4  1  0  0  0  0
  6 10  1  0  0  0  0
  7 15  1  0  0  0  0
  7 14  1  0  0  0  0
  8  6  1  0  0  0  0
  9  7  1  0  0  0  0
 10 11  1  0  0  0  0
 10 30  1  0  0  0  0
 10 31  1  0  0  0  0
 11 12  1  0  0  0  0
 12  2  1  0  0  0  0
 12 32  1  0  0  0  0
 12 33  1  0  0  0  0
 13  3  1  0  0  0  0
 14 16  1  0  0  0  0
 14 34  1  0  0  0  0
 14 35  1  0  0  0  0
 15 17  1  0  0  0  0
 15 36  1  0  0  0  0
 15 37  1  0  0  0  0
 16  8  1  0  0  0  0
 16 38  1  0  0  0  0
 16 39  1  0  0  0  0
 17  8  1  0  0  0  0
 17 40  1  0  0  0  0
 17 41  1  0  0  0  0
 18  9  2  0  0  0  0
 19  6  2  0  0  0  0
 20 11  2  0  0  0  0
 21 13  2  0  0  0  0
 21 42  1  0  0  0  0
 22 13  1  0  0  0  0
 22 43  1  0  0  0  0
 23  9  1  0  0  0  0
 24 26  1  0  0  0  0
 24 25  2  0  0  0  0
 24 44  1  0  0  0  0
 25 21  1  0  0  0  0
 25 45  1  0  0  0  0
 26 22  2  0  0  0  0
 26 46  1  0  0  0  0
 27  5  1  0  0  0  0
 27 47  1  0  0  0  0
 27 48  1  0  0  0  0
 27 49  1  0  0  0  0
 28 23  1  0  0  0  0
 28 50  1  0  0  0  0
 28 51  1  0  0  0  0
 29 28  1  0  0  0  0
 29 52  1  0  0  0  0
 29 53  1  0  0  0  0
 29 54  1  0  0  0  0
M  END
>  <Mol_ID>
9203

>  <Formula>
C20H24ClN3O5S

>  <MolWeight>
453.93966

>  <Cat>
P2700

>  <Name>
WAY-332054

>  <Synonyms>
N/A

>  <Target>
beta-catenin

>  <Form>
free base

>  <CAS>
1020049-00-6

>  <URL>
N/A

$$$$
