WAY-324725
 OpenBabel08302521423D

 50 53  0  0  0  0  0  0  0  0999 V2000
    0.3015    0.6206   -0.0019 N   0  0  0  0  0  0  0  0  0  0  0  0
   -0.8158    1.4382    0.0016 C   0  0  0  0  0  0  0  0  0  0  0  0
    0.1761   -0.7665    0.0235 C   0  0  0  0  0  0  0  0  0  0  0  0
    2.3186   -0.1390   -0.0111 C   0  0  0  0  0  0  0  0  0  0  0  0
    1.6005    0.9929   -0.0337 N   0  0  0  0  0  0  0  0  0  0  0  0
    1.4575   -1.2626    0.0007 C   0  0  0  0  0  0  0  0  0  0  0  0
   -1.0400   -1.3907    0.0641 N   0  0  0  0  0  0  0  0  0  0  0  0
   -2.0452    0.8757    0.0236 C   0  0  0  0  0  0  0  0  0  0  0  0
    6.5122    0.1585    1.7372 C   0  0  0  0  0  0  0  0  0  0  0  0
   -0.6141    2.9061   -0.0096 C   0  0  0  0  0  0  0  0  0  0  0  0
   -2.0955   -0.6236    0.0737 C   0  0  0  0  0  0  0  0  0  0  0  0
    3.8018   -0.1700   -0.0419 C   0  0  0  0  0  0  0  0  0  0  0  0
    6.8995   -1.4877    3.2828 N   0  0  0  0  0  0  0  0  0  0  0  0
    7.3581    0.6640    2.7191 C   0  0  0  0  0  0  0  0  0  0  0  0
    7.5072   -0.3454    3.6408 N   0  0  0  0  0  0  0  0  0  0  0  0
    4.5333    0.8915    0.5195 N   0  0  0  0  0  0  0  0  0  0  0  0
    6.3077   -1.1864    2.1277 C   0  0  0  0  0  0  0  0  0  0  0  0
    5.9927    0.8199    0.4989 C   0  0  0  0  0  0  0  0  0  0  0  0
   -3.4531   -1.2360    0.1014 C   0  0  0  0  0  0  0  0  0  0  0  0
    4.3690   -1.1429   -0.5381 O   0  0  0  0  0  0  0  0  0  0  0  0
    0.6684    3.3426   -0.0357 F   0  0  0  0  0  0  0  0  0  0  0  0
   -1.2310    3.4802   -1.0779 F   0  0  0  0  0  0  0  0  0  0  0  0
   -1.1777    3.4724    1.0942 F   0  0  0  0  0  0  0  0  0  0  0  0
   -4.5433   -0.5773    0.6817 C   0  0  0  0  0  0  0  0  0  0  0  0
   -3.6388   -2.4953   -0.4840 C   0  0  0  0  0  0  0  0  0  0  0  0
   -5.9971   -2.3911    0.0330 C   0  0  0  0  0  0  0  0  0  0  0  0
   -4.9106   -3.0683   -0.5233 C   0  0  0  0  0  0  0  0  0  0  0  0
   -5.8123   -1.1504    0.6411 C   0  0  0  0  0  0  0  0  0  0  0  0
    8.2277   -0.3070    4.8932 C   0  0  0  0  0  0  0  0  0  0  0  0
    8.0327    1.9831    2.8262 C   0  0  0  0  0  0  0  0  0  0  0  0
    3.9260    2.0393    1.1783 C   0  0  0  0  0  0  0  0  0  0  0  0
    1.7436   -2.3067   -0.0012 H   0  0  0  0  0  0  0  0  0  0  0  0
   -2.9487    1.4644   -0.0078 H   0  0  0  0  0  0  0  0  0  0  0  0
    5.7510   -1.9581    1.6103 H   0  0  0  0  0  0  0  0  0  0  0  0
    6.3283    0.2621   -0.3822 H   0  0  0  0  0  0  0  0  0  0  0  0
    6.3914    1.8365    0.3993 H   0  0  0  0  0  0  0  0  0  0  0  0
   -4.4313    0.3796    1.1833 H   0  0  0  0  0  0  0  0  0  0  0  0
   -2.7994   -3.0301   -0.9222 H   0  0  0  0  0  0  0  0  0  0  0  0
   -6.9904   -2.8354    0.0029 H   0  0  0  0  0  0  0  0  0  0  0  0
   -5.0575   -4.0381   -0.9914 H   0  0  0  0  0  0  0  0  0  0  0  0
   -6.6580   -0.6287    1.0835 H   0  0  0  0  0  0  0  0  0  0  0  0
    9.2929   -0.1972    4.6772 H   0  0  0  0  0  0  0  0  0  0  0  0
    7.8587    0.5368    5.4816 H   0  0  0  0  0  0  0  0  0  0  0  0
    8.0537   -1.2359    5.4440 H   0  0  0  0  0  0  0  0  0  0  0  0
    8.7372    2.1087    1.9965 H   0  0  0  0  0  0  0  0  0  0  0  0
    7.3005    2.7940    2.7804 H   0  0  0  0  0  0  0  0  0  0  0  0
    8.5995    2.0957    3.7551 H   0  0  0  0  0  0  0  0  0  0  0  0
    3.4496    2.6709    0.4219 H   0  0  0  0  0  0  0  0  0  0  0  0
    3.1871    1.7033    1.9109 H   0  0  0  0  0  0  0  0  0  0  0  0
    4.6803    2.6382    1.6961 H   0  0  0  0  0  0  0  0  0  0  0  0
  2  1  1  0  0  0  0
  3  1  1  0  0  0  0
  4  5  2  0  0  0  0
  4  6  1  0  0  0  0
  5  1  1  0  0  0  0
  6  3  2  0  0  0  0
  6 32  1  0  0  0  0
  7  3  1  0  0  0  0
  8  2  2  0  0  0  0
  8 33  1  0  0  0  0
  9 18  1  0  0  0  0
 10  2  1  0  0  0  0
 11  7  2  0  0  0  0
 11  8  1  0  0  0  0
 12  4  1  0  0  0  0
 13 17  2  0  0  0  0
 14  9  2  0  0  0  0
 15 14  1  0  0  0  0
 15 13  1  0  0  0  0
 16 12  1  0  0  0  0
 17  9  1  0  0  0  0
 17 34  1  0  0  0  0
 18 16  1  0  0  0  0
 18 35  1  0  0  0  0
 18 36  1  0  0  0  0
 19 11  1  0  0  0  0
 20 12  2  0  0  0  0
 21 10  1  0  0  0  0
 22 10  1  0  0  0  0
 23 10  1  0  0  0  0
 24 19  2  0  0  0  0
 24 37  1  0  0  0  0
 25 19  1  0  0  0  0
 25 38  1  0  0  0  0
 26 27  1  0  0  0  0
 26 39  1  0  0  0  0
 27 25  2  0  0  0  0
 27 40  1  0  0  0  0
 28 24  1  0  0  0  0
 28 26  2  0  0  0  0
 28 41  1  0  0  0  0
 29 15  1  0  0  0  0
 29 42  1  0  0  0  0
 29 43  1  0  0  0  0
 29 44  1  0  0  0  0
 30 14  1  0  0  0  0
 30 45  1  0  0  0  0
 30 46  1  0  0  0  0
 30 47  1  0  0  0  0
 31 16  1  0  0  0  0
 31 48  1  0  0  0  0
 31 49  1  0  0  0  0
 31 50  1  0  0  0  0
M  END
>  <Mol_ID>
8624

>  <Formula>
C21H18ClF3N6O

>  <MolWeight>
462.8554296

>  <Cat>
P2346

>  <Name>
WAY-324725

>  <Synonyms>
N/A

>  <Target>
11¦Â-HSD1

>  <Form>
free base

>  <CAS>
489450-94-4

>  <URL>
N/A

$$$$
