WAY-657592
 OpenBabel08302521423D

 57 59  0  0  0  0  0  0  0  0999 V2000
    1.4675   -0.1488   -0.1995 S   0  0  0  0  0  0  0  0  0  0  0  0
    3.1380    0.2070   -0.0874 N   0  0  0  0  0  0  0  0  0  0  0  0
   -0.7854   -1.7602   -5.5828 C   0  0  0  0  0  0  0  0  0  0  0  0
    1.1734   -0.7746   -1.8604 C   0  0  0  0  0  0  0  0  0  0  0  0
    0.7535    1.1178   -0.1185 O   0  0  0  0  0  0  0  0  0  0  0  0
    1.1458   -1.2122    0.7201 O   0  0  0  0  0  0  0  0  0  0  0  0
    4.0997   -0.8973   -0.2891 C   0  0  0  0  0  0  0  0  0  0  0  0
    3.5452    1.0612    1.0848 C   0  0  0  0  0  0  0  0  0  0  0  0
   -1.0359   -3.0657   -5.9549 N   0  0  0  0  0  0  0  0  0  0  0  0
    0.0114   -1.5182   -4.3313 C   0  0  0  0  0  0  0  0  0  0  0  0
   -1.2054   -0.7996   -6.2199 O   0  0  0  0  0  0  0  0  0  0  0  0
    0.6604   -2.0709   -2.0449 C   0  0  0  0  0  0  0  0  0  0  0  0
    1.1751    0.1223   -2.9289 C   0  0  0  0  0  0  0  0  0  0  0  0
    0.0854   -2.4412   -3.2781 C   0  0  0  0  0  0  0  0  0  0  0  0
    0.5934   -0.2494   -4.1517 C   0  0  0  0  0  0  0  0  0  0  0  0
    3.6863    0.2429    2.3811 C   0  0  3  0  0  0  0  0  0  0  0  0
    4.1687   -1.7928    0.9510 C   0  0  3  0  0  0  0  0  0  0  0  0
   -1.8830   -3.4101   -7.0912 C   0  0  0  0  0  0  0  0  0  0  0  0
    4.6026   -0.9794    2.1765 C   0  0  0  0  0  0  0  0  0  0  0  0
   -3.2177   -4.0095   -6.6931 C   0  0  0  0  0  0  0  0  0  0  0  0
   -5.7352   -5.1089   -6.0010 C   0  0  0  0  0  0  0  0  0  0  0  0
   -3.9018   -3.5929   -5.5432 C   0  0  0  0  0  0  0  0  0  0  0  0
   -3.8465   -4.9520   -7.5209 C   0  0  0  0  0  0  0  0  0  0  0  0
   -5.1421   -4.1398   -5.1946 C   0  0  0  0  0  0  0  0  0  0  0  0
   -5.0883   -5.4991   -7.1719 C   0  0  0  0  0  0  0  0  0  0  0  0
   -6.9271   -5.7378   -5.7569 O   0  0  0  0  0  0  0  0  0  0  0  0
    4.2032    1.0967    3.5452 C   0  0  0  0  0  0  0  0  0  0  0  0
    5.0581   -3.0022    0.6975 C   0  0  0  0  0  0  0  0  0  0  0  0
   -7.6047   -5.3929   -4.5532 C   0  0  0  0  0  0  0  0  0  0  0  0
    3.8402   -1.4616   -1.1885 H   0  0  0  0  0  0  0  0  0  0  0  0
    5.0853   -0.4525   -0.4908 H   0  0  0  0  0  0  0  0  0  0  0  0
    4.5022    1.5396    0.8358 H   0  0  0  0  0  0  0  0  0  0  0  0
    2.8324    1.8837    1.2206 H   0  0  0  0  0  0  0  0  0  0  0  0
   -0.5898   -3.8316   -5.4710 H   0  0  0  0  0  0  0  0  0  0  0  0
    0.6199   -2.7730   -1.2126 H   0  0  0  0  0  0  0  0  0  0  0  0
    1.5476    1.1351   -2.7937 H   0  0  0  0  0  0  0  0  0  0  0  0
   -0.3805   -3.4199   -3.3585 H   0  0  0  0  0  0  0  0  0  0  0  0
    0.5327    0.4893   -4.9512 H   0  0  0  0  0  0  0  0  0  0  0  0
    2.6904   -0.1177    2.6640 H   0  0  0  0  0  0  0  0  0  0  0  0
    3.1797   -2.1989    1.1689 H   0  0  0  0  0  0  0  0  0  0  0  0
   -2.0554   -2.5377   -7.7318 H   0  0  0  0  0  0  0  0  0  0  0  0
   -1.3174   -4.1501   -7.6700 H   0  0  0  0  0  0  0  0  0  0  0  0
    4.5626   -1.6132    3.0720 H   0  0  0  0  0  0  0  0  0  0  0  0
    5.6459   -0.6561    2.0661 H   0  0  0  0  0  0  0  0  0  0  0  0
   -3.4746   -2.8198   -4.9043 H   0  0  0  0  0  0  0  0  0  0  0  0
   -3.3808   -5.2707   -8.4526 H   0  0  0  0  0  0  0  0  0  0  0  0
   -5.6190   -3.7771   -4.2879 H   0  0  0  0  0  0  0  0  0  0  0  0
   -5.5574   -6.2345   -7.8231 H   0  0  0  0  0  0  0  0  0  0  0  0
    5.2647    1.3415    3.4324 H   0  0  0  0  0  0  0  0  0  0  0  0
    3.6461    2.0360    3.6336 H   0  0  0  0  0  0  0  0  0  0  0  0
    4.0885    0.5559    4.4920 H   0  0  0  0  0  0  0  0  0  0  0  0
    6.0726   -2.7142    0.4089 H   0  0  0  0  0  0  0  0  0  0  0  0
    5.1124   -3.6329    1.5906 H   0  0  0  0  0  0  0  0  0  0  0  0
    4.6320   -3.6097   -0.1095 H   0  0  0  0  0  0  0  0  0  0  0  0
   -6.9674   -5.5411   -3.6734 H   0  0  0  0  0  0  0  0  0  0  0  0
   -7.9771   -4.3626   -4.6012 H   0  0  0  0  0  0  0  0  0  0  0  0
   -8.4651   -6.0576   -4.4487 H   0  0  0  0  0  0  0  0  0  0  0  0
  2  1  1  0  0  0  0
  3 10  1  0  0  0  0
  4  1  1  0  0  0  0
  5  1  2  0  0  0  0
  6  1  2  0  0  0  0
  7  2  1  0  0  0  0
  7 30  1  0  0  0  0
  7 31  1  0  0  0  0
  8  2  1  0  0  0  0
  8 32  1  0  0  0  0
  8 33  1  0  0  0  0
  9  3  1  0  0  0  0
  9 34  1  0  0  0  0
 10 15  1  0  0  0  0
 11  3  2  0  0  0  0
 12  4  2  0  0  0  0
 12 35  1  0  0  0  0
 13  4  1  0  0  0  0
 13 36  1  0  0  0  0
 14 12  1  0  0  0  0
 14 10  2  0  0  0  0
 14 37  1  0  0  0  0
 15 13  2  0  0  0  0
 15 38  1  0  0  0  0
 16  8  1  0  0  0  0
 16 39  1  0  0  0  0
 17  7  1  0  0  0  0
 17 40  1  0  0  0  0
 18  9  1  0  0  0  0
 18 41  1  0  0  0  0
 18 42  1  0  0  0  0
 19 16  1  0  0  0  0
 19 17  1  0  0  0  0
 19 43  1  0  0  0  0
 19 44  1  0  0  0  0
 20 18  1  0  0  0  0
 21 25  2  0  0  0  0
 22 20  1  0  0  0  0
 22 45  1  0  0  0  0
 23 20  2  0  0  0  0
 23 46  1  0  0  0  0
 24 22  2  0  0  0  0
 24 21  1  0  0  0  0
 24 47  1  0  0  0  0
 25 23  1  0  0  0  0
 25 48  1  0  0  0  0
 26 21  1  0  0  0  0
 27 16  1  0  0  0  0
 27 49  1  0  0  0  0
 27 50  1  0  0  0  0
 27 51  1  0  0  0  0
 28 17  1  0  0  0  0
 28 52  1  0  0  0  0
 28 53  1  0  0  0  0
 28 54  1  0  0  0  0
 29 26  1  0  0  0  0
 29 55  1  0  0  0  0
 29 56  1  0  0  0  0
 29 57  1  0  0  0  0
M  END
>  <Mol_ID>
8549

>  <Formula>
C22H28N2O4S

>  <MolWeight>
416.53372

>  <Cat>
P3160

>  <Name>
WAY-657592

>  <Synonyms>
N/A

>  <Target>
calcium channel

>  <Form>
free base

>  <CAS>
853352-97-3

>  <URL>
N/A

$$$$
