WAY-639717
 OpenBabel08302521443D

 50 52  0  0  0  0  0  0  0  0999 V2000
    4.2898    3.0929    4.0329 S   0  0  0  0  0  0  0  0  0  0  0  0
   -0.0285    2.2308    8.3115 N   0  0  0  0  0  0  0  0  0  0  0  0
    0.3055    1.6526    7.0942 N   0  0  0  0  0  0  0  0  0  0  0  0
   -0.5617    1.4250    6.1490 C   0  0  0  0  0  0  0  0  0  0  0  0
    3.2224    1.6645    3.9756 C   0  0  0  0  0  0  0  0  0  0  0  0
   -1.0191    3.0646    8.3795 C   0  0  0  0  0  0  0  0  0  0  0  0
   -2.2334    1.9163    6.2498 S   0  0  0  0  0  0  0  0  0  0  0  0
    5.2091    2.8972    5.4422 N   0  0  0  0  0  0  0  0  0  0  0  0
    1.9557    1.7462    4.5650 C   0  0  0  0  0  0  0  0  0  0  0  0
    3.4370    4.2510    4.2109 O   0  0  0  0  0  0  0  0  0  0  0  0
    5.1799    3.0034    2.8954 O   0  0  0  0  0  0  0  0  0  0  0  0
   -0.2584    0.7766    4.9822 N   0  0  0  0  0  0  0  0  0  0  0  0
   -1.9800    7.1891   13.6498 C   0  0  0  0  0  0  0  0  0  0  0  0
   -1.2264    3.7960    9.6536 C   0  0  0  0  0  0  0  0  0  0  0  0
   -1.9303    3.3985    7.2270 C   0  0  0  0  0  0  0  0  0  0  0  0
   -1.6146    5.9304   13.2740 N   0  0  0  0  0  0  0  0  0  0  0  0
    1.0059    0.7304    4.3783 C   0  0  0  0  0  0  0  0  0  0  0  0
   -1.9727    7.4599   14.8545 O   0  0  0  0  0  0  0  0  0  0  0  0
   -0.9298    3.2024   10.8807 C   0  0  0  0  0  0  0  0  0  0  0  0
   -1.6386    5.1267    9.6165 C   0  0  0  0  0  0  0  0  0  0  0  0
   -1.5049    5.2747   12.0351 C   0  0  0  0  0  0  0  0  0  0  0  0
   -1.7779    5.8555   10.7984 C   0  0  0  0  0  0  0  0  0  0  0  0
   -1.0782    3.9368   12.0613 C   0  0  0  0  0  0  0  0  0  0  0  0
    3.5651    0.5556    3.2006 C   0  0  0  0  0  0  0  0  0  0  0  0
    2.6385   -0.4745    3.0322 C   0  0  0  0  0  0  0  0  0  0  0  0
    4.5156    3.0282    6.7347 C   0  0  0  0  0  0  0  0  0  0  0  0
    6.2903    1.9055    5.4428 C   0  0  0  0  0  0  0  0  0  0  0  0
   -2.3813    8.2323   12.6504 C   0  0  0  0  0  0  0  0  0  0  0  0
    1.3677   -0.3823    3.6098 C   0  0  0  0  0  0  0  0  0  0  0  0
    1.6948    2.6369    5.1340 H   0  0  0  0  0  0  0  0  0  0  0  0
   -1.0369    0.4531    4.4232 H   0  0  0  0  0  0  0  0  0  0  0  0
   -1.4703    4.1868    6.6215 H   0  0  0  0  0  0  0  0  0  0  0  0
   -2.8975    3.7586    7.5921 H   0  0  0  0  0  0  0  0  0  0  0  0
   -1.3772    5.3795   14.0922 H   0  0  0  0  0  0  0  0  0  0  0  0
   -0.5755    2.1710   10.9236 H   0  0  0  0  0  0  0  0  0  0  0  0
   -1.8275    5.6377    8.6755 H   0  0  0  0  0  0  0  0  0  0  0  0
   -2.0886    6.8798   10.6758 H   0  0  0  0  0  0  0  0  0  0  0  0
   -0.8420    3.4474   13.0056 H   0  0  0  0  0  0  0  0  0  0  0  0
    4.5332    0.4989    2.7077 H   0  0  0  0  0  0  0  0  0  0  0  0
    2.8968   -1.3474    2.4366 H   0  0  0  0  0  0  0  0  0  0  0  0
    3.8364    2.1887    6.9061 H   0  0  0  0  0  0  0  0  0  0  0  0
    5.2467    3.0484    7.5492 H   0  0  0  0  0  0  0  0  0  0  0  0
    3.9620    3.9699    6.7829 H   0  0  0  0  0  0  0  0  0  0  0  0
    5.9378    0.9329    5.7939 H   0  0  0  0  0  0  0  0  0  0  0  0
    6.7396    1.7895    4.4531 H   0  0  0  0  0  0  0  0  0  0  0  0
    7.0904    2.2536    6.1064 H   0  0  0  0  0  0  0  0  0  0  0  0
   -1.5427    8.4664   11.9882 H   0  0  0  0  0  0  0  0  0  0  0  0
   -3.2642    7.9072   12.0928 H   0  0  0  0  0  0  0  0  0  0  0  0
   -2.6515    9.1544   13.1729 H   0  0  0  0  0  0  0  0  0  0  0  0
    0.6631   -1.1995    3.4698 H   0  0  0  0  0  0  0  0  0  0  0  0
  2  3  1  0  0  0  0
  3  4  2  0  0  0  0
  4 12  1  0  0  0  0
  5  1  1  0  0  0  0
  6 15  1  0  0  0  0
  6  2  2  0  0  0  0
  7  4  1  0  0  0  0
  8  1  1  0  0  0  0
  9  5  2  0  0  0  0
  9 30  1  0  0  0  0
 10  1  2  0  0  0  0
 11  1  2  0  0  0  0
 12 17  1  0  0  0  0
 12 31  1  0  0  0  0
 13 16  1  0  0  0  0
 14  6  1  0  0  0  0
 15  7  1  0  0  0  0
 15 32  1  0  0  0  0
 15 33  1  0  0  0  0
 16 21  1  0  0  0  0
 16 34  1  0  0  0  0
 17  9  1  0  0  0  0
 18 13  2  0  0  0  0
 19 14  2  0  0  0  0
 19 35  1  0  0  0  0
 20 14  1  0  0  0  0
 20 36  1  0  0  0  0
 21 22  1  0  0  0  0
 21 23  2  0  0  0  0
 22 20  2  0  0  0  0
 22 37  1  0  0  0  0
 23 19  1  0  0  0  0
 23 38  1  0  0  0  0
 24  5  1  0  0  0  0
 24 39  1  0  0  0  0
 25 24  2  0  0  0  0
 25 40  1  0  0  0  0
 26  8  1  0  0  0  0
 26 41  1  0  0  0  0
 26 42  1  0  0  0  0
 26 43  1  0  0  0  0
 27  8  1  0  0  0  0
 27 44  1  0  0  0  0
 27 45  1  0  0  0  0
 27 46  1  0  0  0  0
 28 13  1  0  0  0  0
 28 47  1  0  0  0  0
 28 48  1  0  0  0  0
 28 49  1  0  0  0  0
 29 25  1  0  0  0  0
 29 17  2  0  0  0  0
 29 50  1  0  0  0  0
M  END
>  <Mol_ID>
9079

>  <Formula>
C19H21N5O3S2

>  <MolWeight>
431.53174

>  <Cat>
P3086

>  <Name>
WAY-639717

>  <Synonyms>
N/A

>  <Target>
Mcl-1

>  <Form>
free base

>  <CAS>
795285-35-7

>  <URL>
N/A

$$$$
