WAY-300364
 OpenBabel08302521413D

 50 52  0  0  0  0  0  0  0  0999 V2000
   -0.9574   -0.9009   -0.3970 C   0  0  3  0  0  0  0  0  0  0  0  0
   -1.0987    0.5242   -0.1076 N   0  0  0  0  0  0  0  0  0  0  0  0
   -1.2206   -1.2214   -1.8870 C   0  0  0  0  0  0  0  0  0  0  0  0
    0.4840   -1.1803    0.0088 C   0  0  0  0  0  0  0  0  0  0  0  0
    0.1722    1.2158   -0.2324 C   0  0  0  0  0  0  0  0  0  0  0  0
   -2.2804    1.1316    0.2394 C   0  0  0  0  0  0  0  0  0  0  0  0
   -1.7172   -0.1480   -2.6113 N   0  0  0  0  0  0  0  0  0  0  0  0
   -0.9880   -2.3369   -2.3485 O   0  0  0  0  0  0  0  0  0  0  0  0
    1.2228    0.1107   -0.3444 C   0  0  0  0  0  0  0  0  0  0  0  0
   -3.2896    0.2321    0.3097 O   0  0  0  0  0  0  0  0  0  0  0  0
   -2.3981    2.3350    0.4201 O   0  0  0  0  0  0  0  0  0  0  0  0
   -2.1222   -0.1962   -3.9552 C   0  0  0  0  0  0  0  0  0  0  0  0
   -4.6079    0.7221    0.5895 C   0  0  0  0  0  0  0  0  0  0  0  0
   -1.8481    0.8831   -4.8246 C   0  0  0  0  0  0  0  0  0  0  0  0
   -2.8576   -1.3008   -4.4008 C   0  0  0  0  0  0  0  0  0  0  0  0
   -5.5774   -0.0493   -0.2763 C   0  0  0  0  0  0  0  0  0  0  0  0
   -2.3197    0.8135   -6.1580 C   0  0  0  0  0  0  0  0  0  0  0  0
   -1.0081    2.0609   -4.3945 C   0  0  0  0  0  0  0  0  0  0  0  0
   -3.3345   -1.3532   -5.7047 C   0  0  0  0  0  0  0  0  0  0  0  0
   -6.6022   -0.8203    0.2889 C   0  0  0  0  0  0  0  0  0  0  0  0
   -5.4625   -0.0080   -1.6776 C   0  0  0  0  0  0  0  0  0  0  0  0
   -3.0589   -0.3066   -6.5773 C   0  0  0  0  0  0  0  0  0  0  0  0
   -2.0308    1.8689   -7.1941 C   0  0  0  0  0  0  0  0  0  0  0  0
   -7.4716   -1.5513   -0.5264 C   0  0  0  0  0  0  0  0  0  0  0  0
   -6.3254   -0.7426   -2.4889 C   0  0  0  0  0  0  0  0  0  0  0  0
   -7.3296   -1.5186   -1.9130 C   0  0  0  0  0  0  0  0  0  0  0  0
   -1.6626   -1.4991    0.1891 H   0  0  0  0  0  0  0  0  0  0  0  0
    0.5338   -1.3322    1.0947 H   0  0  0  0  0  0  0  0  0  0  0  0
    0.9239   -2.0576   -0.4741 H   0  0  0  0  0  0  0  0  0  0  0  0
    0.3310    1.8824    0.6188 H   0  0  0  0  0  0  0  0  0  0  0  0
    0.1547    1.8207   -1.1454 H   0  0  0  0  0  0  0  0  0  0  0  0
   -1.5906    0.7619   -2.1902 H   0  0  0  0  0  0  0  0  0  0  0  0
    2.0736    0.2880    0.3211 H   0  0  0  0  0  0  0  0  0  0  0  0
    1.6115    0.0526   -1.3677 H   0  0  0  0  0  0  0  0  0  0  0  0
   -4.8083    0.5339    1.6506 H   0  0  0  0  0  0  0  0  0  0  0  0
   -4.7213    1.7944    0.3985 H   0  0  0  0  0  0  0  0  0  0  0  0
   -3.1005   -2.1147   -3.7211 H   0  0  0  0  0  0  0  0  0  0  0  0
   -0.1565    2.1827   -5.0727 H   0  0  0  0  0  0  0  0  0  0  0  0
   -1.6096    2.9753   -4.3888 H   0  0  0  0  0  0  0  0  0  0  0  0
   -0.5710    1.9486   -3.4012 H   0  0  0  0  0  0  0  0  0  0  0  0
   -3.9065   -2.2133   -6.0393 H   0  0  0  0  0  0  0  0  0  0  0  0
   -6.7339   -0.8647    1.3676 H   0  0  0  0  0  0  0  0  0  0  0  0
   -4.6788    0.5901   -2.1397 H   0  0  0  0  0  0  0  0  0  0  0  0
   -3.4167   -0.3696   -7.6032 H   0  0  0  0  0  0  0  0  0  0  0  0
   -1.4160    1.4405   -7.9936 H   0  0  0  0  0  0  0  0  0  0  0  0
   -2.9686    2.2371   -7.6224 H   0  0  0  0  0  0  0  0  0  0  0  0
   -1.4966    2.7352   -6.7974 H   0  0  0  0  0  0  0  0  0  0  0  0
   -8.2586   -2.1542   -0.0778 H   0  0  0  0  0  0  0  0  0  0  0  0
   -6.2164   -0.7169   -3.5731 H   0  0  0  0  0  0  0  0  0  0  0  0
   -7.9964   -2.0990   -2.5427 H   0  0  0  0  0  0  0  0  0  0  0  0
  1  2  1  0  0  0  0
  1  3  1  0  0  0  0
  1  4  1  0  0  0  0
  1 27  1  0  0  0  0
  2  5  1  0  0  0  0
  2  6  1  0  0  0  0
  3  7  1  0  0  0  0
  3  8  2  0  0  0  0
  4  9  1  0  0  0  0
  4 28  1  0  0  0  0
  4 29  1  0  0  0  0
  5  9  1  0  0  0  0
  5 30  1  0  0  0  0
  5 31  1  0  0  0  0
  6 10  1  0  0  0  0
  6 11  2  0  0  0  0
  7 12  1  0  0  0  0
  7 32  1  0  0  0  0
  9 33  1  0  0  0  0
  9 34  1  0  0  0  0
 10 13  1  0  0  0  0
 12 14  2  0  0  0  0
 12 15  1  0  0  0  0
 13 16  1  0  0  0  0
 13 35  1  0  0  0  0
 13 36  1  0  0  0  0
 14 17  1  0  0  0  0
 14 18  1  0  0  0  0
 15 19  2  0  0  0  0
 15 37  1  0  0  0  0
 16 20  2  0  0  0  0
 16 21  1  0  0  0  0
 17 22  2  0  0  0  0
 17 23  1  0  0  0  0
 18 38  1  0  0  0  0
 18 39  1  0  0  0  0
 18 40  1  0  0  0  0
 19 22  1  0  0  0  0
 19 41  1  0  0  0  0
 20 24  1  0  0  0  0
 20 42  1  0  0  0  0
 21 25  2  0  0  0  0
 21 43  1  0  0  0  0
 22 44  1  0  0  0  0
 23 45  1  0  0  0  0
 23 46  1  0  0  0  0
 23 47  1  0  0  0  0
 24 26  2  0  0  0  0
 24 48  1  0  0  0  0
 25 26  1  0  0  0  0
 25 49  1  0  0  0  0
 26 50  1  0  0  0  0
M  END
>  <Mol_ID>
8404

>  <Formula>
C21H24N2O3

>  <MolWeight>
352.42686

>  <Cat>
P2137

>  <Name>
WAY-300364

>  <Synonyms>
N/A

>  <Target>
farnesyltransferase,antiproliferative

>  <Form>
free base

>  <CAS>
250697-64-4

>  <URL>
N/A

$$$$
