WAY-332047
 OpenBabel08302521443D

 49 51  0  0  0  0  0  0  0  0999 V2000
   -0.9844    0.5853    0.6628 N   0  0  0  0  0  0  0  0  0  0  0  0
    0.1382    1.0371   -0.0053 C   0  0  0  0  0  0  0  0  0  0  0  0
   -0.9678   -0.7244    0.4883 C   0  0  0  0  0  0  0  0  0  0  0  0
    0.1272   -1.1711   -0.2047 O   0  0  0  0  0  0  0  0  0  0  0  0
    0.8284   -0.0411   -0.5138 C   0  0  0  0  0  0  0  0  0  0  0  0
   -0.3233    3.1992   -1.6326 S   0  0  3  0  0  0  0  0  0  0  0  0
    0.4152    2.4867   -0.1202 C   0  0  0  0  0  0  0  0  0  0  0  0
   -2.0620    2.8944   -1.2008 C   0  0  0  0  0  0  0  0  0  0  0  0
   -3.0351    3.2558   -2.3042 C   0  0  0  0  0  0  0  0  0  0  0  0
   -1.9735   -1.7184    0.8514 C   0  0  0  0  0  0  0  0  0  0  0  0
   -4.3533    3.0231   -1.9468 N   0  0  0  0  0  0  0  0  0  0  0  0
   -0.0742    4.6797   -1.5646 O   0  0  0  0  0  0  0  0  0  0  0  0
   -2.7133    3.6566   -3.4168 O   0  0  0  0  0  0  0  0  0  0  0  0
   -3.1481   -1.3236    1.5075 C   0  0  0  0  0  0  0  0  0  0  0  0
   -1.8192   -3.0702    0.5212 C   0  0  0  0  0  0  0  0  0  0  0  0
   -5.4563    3.2787   -2.8485 C   0  0  0  0  0  0  0  0  0  0  0  0
   -4.1462   -2.2566    1.8152 C   0  0  0  0  0  0  0  0  0  0  0  0
   -2.8156   -4.0054    0.8273 C   0  0  0  0  0  0  0  0  0  0  0  0
   -3.9882   -3.6038    1.4727 C   0  0  0  0  0  0  0  0  0  0  0  0
    2.0553   -0.2171   -1.3069 C   0  0  0  0  0  0  0  0  0  0  0  0
   -6.2761    2.0379   -3.1069 C   0  0  0  0  0  0  0  0  0  0  0  0
   -5.0707   -4.5942    1.7864 C   0  0  0  0  0  0  0  0  0  0  0  0
   -7.6332    1.9842   -2.7571 C   0  0  0  0  0  0  0  0  0  0  0  0
   -5.7074    0.9389   -3.7678 C   0  0  0  0  0  0  0  0  0  0  0  0
   -8.4073    0.8646   -3.0770 C   0  0  0  0  0  0  0  0  0  0  0  0
   -6.4817   -0.1799   -4.0858 C   0  0  0  0  0  0  0  0  0  0  0  0
   -7.8326   -0.2137   -3.7469 C   0  0  0  0  0  0  0  0  0  0  0  0
    0.0349    3.0367    0.7465 H   0  0  0  0  0  0  0  0  0  0  0  0
    1.4943    2.6652   -0.1798 H   0  0  0  0  0  0  0  0  0  0  0  0
   -2.1992    1.8258   -1.0299 H   0  0  0  0  0  0  0  0  0  0  0  0
   -2.3022    3.4545   -0.2926 H   0  0  0  0  0  0  0  0  0  0  0  0
   -4.5733    2.6528   -1.0320 H   0  0  0  0  0  0  0  0  0  0  0  0
   -3.2989   -0.2805    1.7778 H   0  0  0  0  0  0  0  0  0  0  0  0
   -0.9241   -3.4160    0.0083 H   0  0  0  0  0  0  0  0  0  0  0  0
   -5.1047    3.6845   -3.8028 H   0  0  0  0  0  0  0  0  0  0  0  0
   -6.0707    4.0507   -2.3723 H   0  0  0  0  0  0  0  0  0  0  0  0
   -5.0527   -1.9219    2.3174 H   0  0  0  0  0  0  0  0  0  0  0  0
   -2.6684   -5.0462    0.5480 H   0  0  0  0  0  0  0  0  0  0  0  0
    2.7420   -0.9068   -0.8061 H   0  0  0  0  0  0  0  0  0  0  0  0
    1.8161   -0.6237   -2.2946 H   0  0  0  0  0  0  0  0  0  0  0  0
    2.5774    0.7352   -1.4498 H   0  0  0  0  0  0  0  0  0  0  0  0
   -5.2622   -4.6181    2.8640 H   0  0  0  0  0  0  0  0  0  0  0  0
   -5.9929   -4.3248    1.2611 H   0  0  0  0  0  0  0  0  0  0  0  0
   -4.7909   -5.6058    1.4737 H   0  0  0  0  0  0  0  0  0  0  0  0
   -8.1081    2.8218   -2.2505 H   0  0  0  0  0  0  0  0  0  0  0  0
   -4.6586    0.9605   -4.0579 H   0  0  0  0  0  0  0  0  0  0  0  0
   -9.4626    0.8396   -2.8176 H   0  0  0  0  0  0  0  0  0  0  0  0
   -6.0326   -1.0178   -4.6131 H   0  0  0  0  0  0  0  0  0  0  0  0
   -8.4386   -1.0765   -4.0123 H   0  0  0  0  0  0  0  0  0  0  0  0
  2  1  1  0  0  0  0
  3  1  2  0  0  0  0
  4  3  1  0  0  0  0
  5  2  2  0  0  0  0
  5  4  1  0  0  0  0
  6  7  1  0  0  0  0
  7  2  1  0  0  0  0
  7 28  1  0  0  0  0
  7 29  1  0  0  0  0
  8  6  1  0  0  0  0
  8 30  1  0  0  0  0
  8 31  1  0  0  0  0
  9  8  1  0  0  0  0
 10  3  1  0  0  0  0
 11  9  1  0  0  0  0
 11 32  1  0  0  0  0
 12  6  2  0  0  0  0
 13  9  2  0  0  0  0
 14 10  2  0  0  0  0
 14 33  1  0  0  0  0
 15 10  1  0  0  0  0
 15 34  1  0  0  0  0
 16 11  1  0  0  0  0
 16 35  1  0  0  0  0
 16 36  1  0  0  0  0
 17 14  1  0  0  0  0
 17 37  1  0  0  0  0
 18 15  2  0  0  0  0
 18 38  1  0  0  0  0
 19 18  1  0  0  0  0
 19 17  2  0  0  0  0
 20  5  1  0  0  0  0
 20 39  1  0  0  0  0
 20 40  1  0  0  0  0
 20 41  1  0  0  0  0
 21 16  1  0  0  0  0
 22 19  1  0  0  0  0
 22 42  1  0  0  0  0
 22 43  1  0  0  0  0
 22 44  1  0  0  0  0
 23 21  2  0  0  0  0
 23 45  1  0  0  0  0
 24 21  1  0  0  0  0
 24 46  1  0  0  0  0
 25 23  1  0  0  0  0
 25 47  1  0  0  0  0
 26 24  2  0  0  0  0
 26 48  1  0  0  0  0
 27 26  1  0  0  0  0
 27 25  2  0  0  0  0
 27 49  1  0  0  0  0
M  END
>  <Mol_ID>
9229

>  <Formula>
C21H22N2O3S

>  <MolWeight>
382.47598

>  <Cat>
P2695

>  <Name>
WAY-332047

>  <Synonyms>
N/A

>  <Target>
beta-catenin

>  <Form>
free base

>  <CAS>
958937-95-6

>  <URL>
N/A

$$$$
