WAY-239196
 OpenBabel08302521413D

 30 31  0  0  0  0  0  0  0  0999 V2000
    0.7317   -0.2234    0.7092 C   0  0  0  0  0  0  0  0  0  0  0  0
    1.0928    0.9395   -0.2358 C   0  0  0  0  0  0  0  0  0  0  0  0
    1.5145   -0.7402    1.7035 N   0  0  0  0  0  0  0  0  0  0  0  0
    0.1915    1.0144   -1.2844 N   0  0  0  0  0  0  0  0  0  0  0  0
    0.8764    0.7254   -3.5420 C   0  0  0  0  0  0  0  0  0  0  0  0
   -0.1017   -0.0604   -4.0870 O   0  0  0  0  0  0  0  0  0  0  0  0
   -0.3214   -0.8245    0.4481 O   0  0  0  0  0  0  0  0  0  0  0  0
    2.0703    1.6543   -0.1111 O   0  0  0  0  0  0  0  0  0  0  0  0
    2.0958    0.4106   -4.1077 C   0  0  0  0  0  0  0  0  0  0  0  0
    0.4957   -0.8582   -5.0084 C   0  0  0  0  0  0  0  0  0  0  0  0
    1.8466   -0.6014   -5.0658 C   0  0  0  0  0  0  0  0  0  0  0  0
    0.4528    1.7134   -2.5164 C   0  0  0  0  0  0  0  0  0  0  0  0
    2.6320   -0.3746    2.4677 C   0  0  0  0  0  0  0  0  0  0  0  0
    3.2093    0.8864    2.5651 C   0  0  0  0  0  0  0  0  0  0  0  0
    3.1423   -1.4016    3.2826 C   0  0  0  0  0  0  0  0  0  0  0  0
    4.2764    1.1071    3.4580 C   0  0  0  0  0  0  0  0  0  0  0  0
    4.2026   -1.1878    4.1645 C   0  0  0  0  0  0  0  0  0  0  0  0
    4.7707    0.0755    4.2536 C   0  0  0  0  0  0  0  0  0  0  0  0
    1.1226   -1.6423    1.9587 H   0  0  0  0  0  0  0  0  0  0  0  0
   -0.5222    0.2888   -1.3015 H   0  0  0  0  0  0  0  0  0  0  0  0
    3.0441    0.8667   -3.8618 H   0  0  0  0  0  0  0  0  0  0  0  0
   -0.1592   -1.5393   -5.5354 H   0  0  0  0  0  0  0  0  0  0  0  0
    2.5600   -1.0838   -5.7177 H   0  0  0  0  0  0  0  0  0  0  0  0
   -0.4764    2.2005   -2.8304 H   0  0  0  0  0  0  0  0  0  0  0  0
    1.2201    2.4792   -2.3698 H   0  0  0  0  0  0  0  0  0  0  0  0
    2.8431    1.7403    2.0076 H   0  0  0  0  0  0  0  0  0  0  0  0
    2.7119   -2.4012    3.2424 H   0  0  0  0  0  0  0  0  0  0  0  0
    4.7135    2.0995    3.5439 H   0  0  0  0  0  0  0  0  0  0  0  0
    4.5699   -2.0033    4.7808 H   0  0  0  0  0  0  0  0  0  0  0  0
    5.5893    0.2539    4.9491 H   0  0  0  0  0  0  0  0  0  0  0  0
  2  1  1  0  0  0  0
  3  1  1  0  0  0  0
  3 19  1  0  0  0  0
  4  2  1  0  0  0  0
  4 20  1  0  0  0  0
  5 12  1  0  0  0  0
  6  5  1  0  0  0  0
  7  1  2  0  0  0  0
  8  2  2  0  0  0  0
  9  5  2  0  0  0  0
  9 21  1  0  0  0  0
 10  6  1  0  0  0  0
 10 11  2  0  0  0  0
 10 22  1  0  0  0  0
 11  9  1  0  0  0  0
 11 23  1  0  0  0  0
 12  4  1  0  0  0  0
 12 24  1  0  0  0  0
 12 25  1  0  0  0  0
 13  3  1  0  0  0  0
 14 13  2  0  0  0  0
 14 26  1  0  0  0  0
 15 13  1  0  0  0  0
 15 27  1  0  0  0  0
 16 14  1  0  0  0  0
 16 28  1  0  0  0  0
 17 15  2  0  0  0  0
 17 29  1  0  0  0  0
 18 17  1  0  0  0  0
 18 16  2  0  0  0  0
 18 30  1  0  0  0  0
M  END
>  <Mol_ID>
8380

>  <Formula>
C13H12N2O3

>  <MolWeight>
244.24598

>  <Cat>
P2071

>  <Name>
WAY-239196

>  <Synonyms>
N/A

>  <Target>
others

>  <Form>
free base

>  <CAS>
205749-56-0

>  <URL>
N/A

$$$$
