WAY-638400
 OpenBabel08302521423D

 39 41  0  0  0  0  0  0  0  0999 V2000
    1.1225    0.5384    0.1398 C   0  0  0  0  0  0  0  0  0  0  0  0
    0.4631    0.0547    1.2460 N   0  0  0  0  0  0  0  0  0  0  0  0
    1.0637    0.0330    2.5728 C   0  0  3  0  0  0  0  0  0  0  0  0
    0.2731    0.9060    3.5291 C   0  0  0  0  0  0  0  0  0  0  0  0
    2.1960    1.1305    0.1991 O   0  0  0  0  0  0  0  0  0  0  0  0
   -0.5404    0.3573    4.5398 C   0  0  0  0  0  0  0  0  0  0  0  0
    0.3923    0.2669   -1.1665 C   0  0  0  0  0  0  0  0  0  0  0  0
    1.1729   -1.4241    3.0506 C   0  0  0  0  0  0  0  0  0  0  0  0
   -0.1701   -1.9442    3.5555 C   0  0  0  0  0  0  0  0  0  0  0  0
    0.3552    2.3035    3.4015 C   0  0  0  0  0  0  0  0  0  0  0  0
   -0.6307   -1.1319    4.7619 C   0  0  0  0  0  0  0  0  0  0  0  0
   -1.2303    1.2142    5.4124 C   0  0  0  0  0  0  0  0  0  0  0  0
    0.2186   -1.2308   -1.4220 C   0  0  0  0  0  0  0  0  0  0  0  0
    1.1777    0.7175   -2.3960 C   0  0  0  0  0  0  0  0  0  0  0  0
   -0.3438    3.1430    4.2687 C   0  0  0  0  0  0  0  0  0  0  0  0
   -1.1350    2.5983    5.2752 C   0  0  0  0  0  0  0  0  0  0  0  0
    0.5426   -0.0576   -3.5411 C   0  0  0  0  0  0  0  0  0  0  0  0
    0.0560   -1.3705   -2.9323 C   0  0  0  0  0  0  0  0  0  0  0  0
   -0.4833   -0.2856    1.1512 H   0  0  0  0  0  0  0  0  0  0  0  0
    2.0855    0.4280    2.5109 H   0  0  0  0  0  0  0  0  0  0  0  0
   -0.5824    0.7688   -1.1422 H   0  0  0  0  0  0  0  0  0  0  0  0
    1.9071   -1.4893    3.8643 H   0  0  0  0  0  0  0  0  0  0  0  0
    1.5380   -2.0659    2.2393 H   0  0  0  0  0  0  0  0  0  0  0  0
   -0.9216   -1.8871    2.7581 H   0  0  0  0  0  0  0  0  0  0  0  0
   -0.0842   -3.0002    3.8346 H   0  0  0  0  0  0  0  0  0  0  0  0
    0.9791    2.7415    2.6233 H   0  0  0  0  0  0  0  0  0  0  0  0
   -1.6634   -1.4118    5.0030 H   0  0  0  0  0  0  0  0  0  0  0  0
   -0.0080   -1.3857    5.6293 H   0  0  0  0  0  0  0  0  0  0  0  0
   -1.8419    0.8032    6.2135 H   0  0  0  0  0  0  0  0  0  0  0  0
    1.1066   -1.7861   -1.0924 H   0  0  0  0  0  0  0  0  0  0  0  0
   -0.6390   -1.6472   -0.8834 H   0  0  0  0  0  0  0  0  0  0  0  0
    1.1212    1.7994   -2.5518 H   0  0  0  0  0  0  0  0  0  0  0  0
    2.2381    0.4495   -2.3109 H   0  0  0  0  0  0  0  0  0  0  0  0
   -0.2639    4.2215    4.1614 H   0  0  0  0  0  0  0  0  0  0  0  0
   -1.6729    3.2511    5.9578 H   0  0  0  0  0  0  0  0  0  0  0  0
    1.2479   -0.2231   -4.3620 H   0  0  0  0  0  0  0  0  0  0  0  0
   -0.3102    0.4989   -3.9463 H   0  0  0  0  0  0  0  0  0  0  0  0
    0.6323   -2.2240   -3.3061 H   0  0  0  0  0  0  0  0  0  0  0  0
   -0.9925   -1.5442   -3.1979 H   0  0  0  0  0  0  0  0  0  0  0  0
  2  1  1  0  0  0  0
  2 19  1  0  0  0  0
  3  2  1  0  0  0  0
  3 20  1  0  0  0  0
  4  3  1  0  0  0  0
  5  1  2  0  0  0  0
  6  4  2  0  0  0  0
  7  1  1  0  0  0  0
  7 21  1  0  0  0  0
  8  3  1  0  0  0  0
  8 22  1  0  0  0  0
  8 23  1  0  0  0  0
  9  8  1  0  0  0  0
  9 24  1  0  0  0  0
  9 25  1  0  0  0  0
 10  4  1  0  0  0  0
 10 26  1  0  0  0  0
 11  9  1  0  0  0  0
 11  6  1  0  0  0  0
 11 27  1  0  0  0  0
 11 28  1  0  0  0  0
 12  6  1  0  0  0  0
 12 29  1  0  0  0  0
 13  7  1  0  0  0  0
 13 30  1  0  0  0  0
 13 31  1  0  0  0  0
 14  7  1  0  0  0  0
 14 32  1  0  0  0  0
 14 33  1  0  0  0  0
 15 10  2  0  0  0  0
 15 34  1  0  0  0  0
 16 15  1  0  0  0  0
 16 12  2  0  0  0  0
 16 35  1  0  0  0  0
 17 14  1  0  0  0  0
 17 18  1  0  0  0  0
 17 36  1  0  0  0  0
 17 37  1  0  0  0  0
 18 13  1  0  0  0  0
 18 38  1  0  0  0  0
 18 39  1  0  0  0  0
M  END
>  <Mol_ID>
8512

>  <Formula>
C16H21NO

>  <MolWeight>
243.34404

>  <Cat>
P3038

>  <Name>
WAY-638400

>  <Synonyms>
N/A

>  <Target>
carbonic anhydrase

>  <Form>
free base

>  <CAS>
794557-15-6

>  <URL>
N/A

$$$$
