WAY-326341
 OpenBabel08302521433D

 43 46  0  0  0  0  0  0  0  0999 V2000
    0.2624   -0.6725   -0.1785 N   0  0  0  0  0  0  0  0  0  0  0  0
    0.2041    0.7197   -0.3311 C   0  0  0  0  0  0  0  0  0  0  0  0
    1.4996    1.1853   -0.1449 C   0  0  0  0  0  0  0  0  0  0  0  0
   -0.9105   -1.4737   -0.0869 C   0  0  0  0  0  0  0  0  0  0  0  0
    1.5435   -1.1205   -0.1389 N   0  0  0  0  0  0  0  0  0  0  0  0
   -2.1068   -0.8561   -0.1773 C   0  0  0  0  0  0  0  0  0  0  0  0
   -0.9916    1.3472   -0.5577 N   0  0  0  0  0  0  0  0  0  0  0  0
    2.2877   -0.0123   -0.0585 C   0  0  0  0  0  0  0  0  0  0  0  0
   -2.0534    0.6107   -0.4531 C   0  0  0  0  0  0  0  0  0  0  0  0
    1.9005    2.6052   -0.1052 C   0  0  0  0  0  0  0  0  0  0  0  0
   -3.3988   -1.5282   -0.0269 C   0  0  0  0  0  0  0  0  0  0  0  0
   -0.7305   -2.8456    0.1212 N   0  0  0  0  0  0  0  0  0  0  0  0
    1.1378    3.6455    0.4809 C   0  0  0  0  0  0  0  0  0  0  0  0
   -3.9709   -1.6630    1.2421 C   0  0  0  0  0  0  0  0  0  0  0  0
   -4.0752   -2.0274   -1.1462 C   0  0  0  0  0  0  0  0  0  0  0  0
   -5.8785   -2.7810    0.2792 C   0  0  0  0  0  0  0  0  0  0  0  0
    3.7549   -0.2064    0.1021 C   0  0  0  0  0  0  0  0  0  0  0  0
   -5.2093   -2.2835    1.3965 C   0  0  0  0  0  0  0  0  0  0  0  0
   -5.3135   -2.6524   -0.9899 C   0  0  0  0  0  0  0  0  0  0  0  0
   -0.0513    3.3588    1.1099 O   0  0  0  0  0  0  0  0  0  0  0  0
    3.1506    2.9524   -0.6577 C   0  0  0  0  0  0  0  0  0  0  0  0
    1.6526    4.9554    0.5262 C   0  0  0  0  0  0  0  0  0  0  0  0
   -1.0705    4.3490    0.9608 C   0  0  0  0  0  0  0  0  0  0  0  0
    3.6654    4.2488   -0.5724 C   0  0  0  0  0  0  0  0  0  0  0  0
    2.9135    5.2521    0.0166 C   0  0  0  0  0  0  0  0  0  0  0  0
   -3.0339    1.0975   -0.5882 H   0  0  0  0  0  0  0  0  0  0  0  0
    0.2024   -3.1457   -0.1744 H   0  0  0  0  0  0  0  0  0  0  0  0
   -1.4841   -3.4240   -0.2382 H   0  0  0  0  0  0  0  0  0  0  0  0
   -3.4516   -1.2896    2.1242 H   0  0  0  0  0  0  0  0  0  0  0  0
   -3.6455   -1.9330   -2.1415 H   0  0  0  0  0  0  0  0  0  0  0  0
   -6.8475   -3.2615    0.3948 H   0  0  0  0  0  0  0  0  0  0  0  0
    3.9595   -0.9025    0.9228 H   0  0  0  0  0  0  0  0  0  0  0  0
    4.1787   -0.6336   -0.8145 H   0  0  0  0  0  0  0  0  0  0  0  0
    4.2917    0.7150    0.3301 H   0  0  0  0  0  0  0  0  0  0  0  0
   -5.6550   -2.3888    2.3855 H   0  0  0  0  0  0  0  0  0  0  0  0
   -5.8389   -3.0391   -1.8597 H   0  0  0  0  0  0  0  0  0  0  0  0
    3.7587    2.2089   -1.1649 H   0  0  0  0  0  0  0  0  0  0  0  0
    1.1010    5.7620    0.9977 H   0  0  0  0  0  0  0  0  0  0  0  0
   -0.8695    5.2228    1.5895 H   0  0  0  0  0  0  0  0  0  0  0  0
   -1.2015    4.6475   -0.0862 H   0  0  0  0  0  0  0  0  0  0  0  0
   -2.0158    3.9212    1.3090 H   0  0  0  0  0  0  0  0  0  0  0  0
    4.6562    4.4673   -0.9614 H   0  0  0  0  0  0  0  0  0  0  0  0
    3.3061    6.2623    0.0920 H   0  0  0  0  0  0  0  0  0  0  0  0
  2  1  1  0  0  0  0
  3  2  2  0  0  0  0
  4  1  1  0  0  0  0
  5  1  1  0  0  0  0
  6  4  2  0  0  0  0
  7  2  1  0  0  0  0
  7  9  2  0  0  0  0
  8  5  2  0  0  0  0
  8  3  1  0  0  0  0
  9  6  1  0  0  0  0
  9 26  1  0  0  0  0
 10  3  1  0  0  0  0
 11  6  1  0  0  0  0
 12  4  1  0  0  0  0
 12 27  1  0  0  0  0
 12 28  1  0  0  0  0
 13 10  2  0  0  0  0
 14 11  2  0  0  0  0
 14 29  1  0  0  0  0
 15 11  1  0  0  0  0
 15 30  1  0  0  0  0
 16 19  1  0  0  0  0
 16 18  2  0  0  0  0
 16 31  1  0  0  0  0
 17  8  1  0  0  0  0
 17 32  1  0  0  0  0
 17 33  1  0  0  0  0
 17 34  1  0  0  0  0
 18 14  1  0  0  0  0
 18 35  1  0  0  0  0
 19 15  2  0  0  0  0
 19 36  1  0  0  0  0
 20 13  1  0  0  0  0
 21 10  1  0  0  0  0
 21 37  1  0  0  0  0
 22 13  1  0  0  0  0
 22 38  1  0  0  0  0
 23 20  1  0  0  0  0
 23 39  1  0  0  0  0
 23 40  1  0  0  0  0
 23 41  1  0  0  0  0
 24 21  2  0  0  0  0
 24 42  1  0  0  0  0
 25 24  1  0  0  0  0
 25 22  2  0  0  0  0
 25 43  1  0  0  0  0
M  END
>  <Mol_ID>
8910

>  <Formula>
C20H17ClN4O

>  <MolWeight>
364.82818

>  <Cat>
P2468

>  <Name>
WAY-326341

>  <Synonyms>
N/A

>  <Target>
Others

>  <Form>
free base

>  <CAS>
870756-46-0

>  <URL>
N/A

$$$$
