WAY-325664
 OpenBabel08302521433D

 51 55  0  0  0  0  0  0  0  0999 V2000
    1.6538    0.5011   -0.3017 C   0  0  0  0  0  0  0  0  0  0  0  0
    1.1040   -0.7258   -0.0902 N   0  0  0  0  0  0  0  0  0  0  0  0
    2.9510    0.4156   -0.1204 N   0  0  0  0  0  0  0  0  0  0  0  0
    0.6589    1.3676   -0.6892 N   0  0  0  0  0  0  0  0  0  0  0  0
    1.9633   -1.6593    0.2403 N   0  0  0  0  0  0  0  0  0  0  0  0
    3.1165   -0.9653    0.1370 C   0  0  0  0  0  0  0  0  0  0  0  0
   -0.2440   -0.7426   -0.3297 C   0  0  0  0  0  0  0  0  0  0  0  0
   -0.5324    0.5860   -0.7046 C   0  0  0  0  0  0  0  0  0  0  0  0
    0.5958    2.7398   -0.1949 C   0  0  0  0  0  0  0  0  0  0  0  0
    1.0055    3.7476   -1.2668 C   0  0  0  0  0  0  0  0  0  0  0  0
    2.2950    4.4988   -1.1322 C   0  0  0  0  0  0  0  0  0  0  0  0
    3.2892    4.1200   -0.2270 C   0  0  0  0  0  0  0  0  0  0  0  0
    4.3874    4.9575    0.0106 C   0  0  0  0  0  0  0  0  0  0  0  0
    4.3924   -1.6755    0.2167 C   0  0  0  0  0  0  0  0  0  0  0  0
    4.5443    6.1433   -0.7248 C   0  0  0  0  0  0  0  0  0  0  0  0
    0.2441    4.0382   -2.1925 O   0  0  0  0  0  0  0  0  0  0  0  0
    2.4851    5.6569   -1.9017 C   0  0  0  0  0  0  0  0  0  0  0  0
    3.6143    6.4630   -1.7151 C   0  0  0  0  0  0  0  0  0  0  0  0
   -1.1230   -1.7951   -0.2679 C   0  0  0  0  0  0  0  0  0  0  0  0
    5.3441    4.6752    0.9543 O   0  0  0  0  0  0  0  0  0  0  0  0
   -1.8210    0.8706   -1.0884 C   0  0  0  0  0  0  0  0  0  0  0  0
    5.6296    6.9269   -0.4265 O   0  0  0  0  0  0  0  0  0  0  0  0
    5.6105   -1.0682   -0.0950 C   0  0  0  0  0  0  0  0  0  0  0  0
    4.3885   -3.0465    0.5525 C   0  0  0  0  0  0  0  0  0  0  0  0
    4.8687    3.9894    2.1089 C   0  0  0  0  0  0  0  0  0  0  0  0
    5.4293    8.3300   -0.5690 C   0  0  0  0  0  0  0  0  0  0  0  0
   -2.4186   -1.4959   -0.6627 C   0  0  0  0  0  0  0  0  0  0  0  0
   -2.7604   -0.1823   -1.0735 C   0  0  0  0  0  0  0  0  0  0  0  0
    5.5661   -3.7906    0.5911 C   0  0  0  0  0  0  0  0  0  0  0  0
    6.7952   -1.8167   -0.0559 C   0  0  0  0  0  0  0  0  0  0  0  0
    6.7722   -3.1714    0.2899 C   0  0  0  0  0  0  0  0  0  0  0  0
   -0.4269    3.0164    0.1000 H   0  0  0  0  0  0  0  0  0  0  0  0
    1.1718    2.8646    0.7277 H   0  0  0  0  0  0  0  0  0  0  0  0
    3.2248    3.1741    0.2982 H   0  0  0  0  0  0  0  0  0  0  0  0
    1.7477    5.9497   -2.6478 H   0  0  0  0  0  0  0  0  0  0  0  0
    3.7420    7.3407   -2.3420 H   0  0  0  0  0  0  0  0  0  0  0  0
   -0.8138   -2.7883    0.0386 H   0  0  0  0  0  0  0  0  0  0  0  0
   -2.1066    1.8513   -1.4539 H   0  0  0  0  0  0  0  0  0  0  0  0
    5.6460   -0.0232   -0.3937 H   0  0  0  0  0  0  0  0  0  0  0  0
    3.4498   -3.5548    0.7716 H   0  0  0  0  0  0  0  0  0  0  0  0
    3.8639    4.3162    2.4025 H   0  0  0  0  0  0  0  0  0  0  0  0
    4.8891    2.9083    1.9399 H   0  0  0  0  0  0  0  0  0  0  0  0
    5.5424    4.2198    2.9390 H   0  0  0  0  0  0  0  0  0  0  0  0
    5.6620    8.6406   -1.5919 H   0  0  0  0  0  0  0  0  0  0  0  0
    4.4157    8.6415   -0.2908 H   0  0  0  0  0  0  0  0  0  0  0  0
    6.1234    8.8392    0.1072 H   0  0  0  0  0  0  0  0  0  0  0  0
   -3.1661   -2.2830   -0.6736 H   0  0  0  0  0  0  0  0  0  0  0  0
   -3.7774   -0.0001   -1.4160 H   0  0  0  0  0  0  0  0  0  0  0  0
    5.5302   -4.8462    0.8449 H   0  0  0  0  0  0  0  0  0  0  0  0
    7.7417   -1.3460   -0.3097 H   0  0  0  0  0  0  0  0  0  0  0  0
    7.6947   -3.7455    0.3125 H   0  0  0  0  0  0  0  0  0  0  0  0
  2  1  1  0  0  0  0
  3  1  2  0  0  0  0
  4  1  1  0  0  0  0
  5  2  1  0  0  0  0
  6  3  1  0  0  0  0
  6  5  2  0  0  0  0
  7  2  1  0  0  0  0
  7  8  2  0  0  0  0
  8  4  1  0  0  0  0
  9  4  1  0  0  0  0
  9 32  1  0  0  0  0
  9 33  1  0  0  0  0
 10  9  1  0  0  0  0
 11 10  1  0  0  0  0
 12 11  2  0  0  0  0
 12 34  1  0  0  0  0
 13 12  1  0  0  0  0
 13 15  2  0  0  0  0
 14  6  1  0  0  0  0
 15 18  1  0  0  0  0
 16 10  2  0  0  0  0
 17 11  1  0  0  0  0
 17 35  1  0  0  0  0
 18 17  2  0  0  0  0
 18 36  1  0  0  0  0
 19  7  1  0  0  0  0
 19 37  1  0  0  0  0
 20 13  1  0  0  0  0
 21  8  1  0  0  0  0
 21 38  1  0  0  0  0
 22 15  1  0  0  0  0
 23 14  2  0  0  0  0
 23 39  1  0  0  0  0
 24 14  1  0  0  0  0
 24 40  1  0  0  0  0
 25 20  1  0  0  0  0
 25 41  1  0  0  0  0
 25 42  1  0  0  0  0
 25 43  1  0  0  0  0
 26 22  1  0  0  0  0
 26 44  1  0  0  0  0
 26 45  1  0  0  0  0
 26 46  1  0  0  0  0
 27 19  2  0  0  0  0
 27 28  1  0  0  0  0
 27 47  1  0  0  0  0
 28 21  2  0  0  0  0
 28 48  1  0  0  0  0
 29 24  2  0  0  0  0
 29 49  1  0  0  0  0
 30 23  1  0  0  0  0
 30 50  1  0  0  0  0
 31 29  1  0  0  0  0
 31 30  2  0  0  0  0
 31 51  1  0  0  0  0
M  END
>  <Mol_ID>
8870

>  <Formula>
C24H20N4O3

>  <MolWeight>
412.4406

>  <Cat>
P2418

>  <Name>
WAY-325664

>  <Synonyms>
N/A

>  <Target>
PPAR¦Ã

>  <Form>
free base

>  <CAS>
869355-52-2

>  <URL>
N/A

$$$$
