WAY-639483
 OpenBabel08302521433D

 53 57  0  0  0  0  0  0  0  0999 V2000
    0.0426    0.1470   -0.7144 N   0  0  0  0  0  0  0  0  0  0  0  0
    0.4625   -1.1762   -0.5047 C   0  0  0  0  0  0  0  0  0  0  0  0
   -0.5929   -1.9614   -0.5108 N   0  0  0  0  0  0  0  0  0  0  0  0
   -1.3220    0.1317   -0.5721 N   0  0  0  0  0  0  0  0  0  0  0  0
   -1.6826   -1.1368   -0.5487 N   0  0  0  0  0  0  0  0  0  0  0  0
    0.2772   -4.9733    1.7059 C   0  0  3  0  0  0  0  0  0  0  0  0
    0.6205    1.2997   -1.3400 C   0  0  0  0  0  0  0  0  0  0  0  0
    1.9858   -1.6538    0.1856 S   0  0  0  0  0  0  0  0  0  0  0  0
    1.6136   -4.1819    1.4943 C   0  0  0  0  0  0  0  0  0  0  0  0
   -0.3697   -5.6843    0.4893 C   0  0  0  0  0  0  0  0  0  0  0  0
   -0.7298   -3.9434    2.2575 C   0  0  0  0  0  0  0  0  0  0  0  0
    0.4927   -6.1138    2.7599 C   0  0  0  0  0  0  0  0  0  0  0  0
   -2.0484   -4.5986    2.6849 C   0  0  3  0  0  0  0  0  0  0  0  0
   -1.7287   -6.3390    0.8902 C   0  0  3  0  0  0  0  0  0  0  0  0
   -0.8440   -6.7450    3.2037 C   0  0  3  0  0  0  0  0  0  0  0  0
    0.1080    2.5860   -1.0495 C   0  0  0  0  0  0  0  0  0  0  0  0
    1.4839    1.1525   -2.4479 C   0  0  0  0  0  0  0  0  0  0  0  0
    1.9638   -3.4930    0.1705 C   0  0  0  0  0  0  0  0  0  0  0  0
    2.4094   -4.0735    2.4404 O   0  0  0  0  0  0  0  0  0  0  0  0
   -2.6832   -5.2705    1.4552 C   0  0  0  0  0  0  0  0  0  0  0  0
   -1.7570   -5.6456    3.7668 C   0  0  0  0  0  0  0  0  0  0  0  0
   -1.5219   -7.3976    1.9893 C   0  0  0  0  0  0  0  0  0  0  0  0
    0.2565    3.6290   -1.9710 C   0  0  0  0  0  0  0  0  0  0  0  0
    1.6873    2.2391   -3.3312 C   0  0  0  0  0  0  0  0  0  0  0  0
    1.0044    3.4433   -3.1225 C   0  0  0  0  0  0  0  0  0  0  0  0
   -0.5626    2.9360    0.2575 C   0  0  0  0  0  0  0  0  0  0  0  0
    2.6178    2.1814   -4.5111 C   0  0  0  0  0  0  0  0  0  0  0  0
   -0.5404   -4.9808   -0.3324 H   0  0  0  0  0  0  0  0  0  0  0  0
    0.3007   -6.4618    0.0983 H   0  0  0  0  0  0  0  0  0  0  0  0
   -0.2923   -3.3940    3.0994 H   0  0  0  0  0  0  0  0  0  0  0  0
   -0.9475   -3.1992    1.4889 H   0  0  0  0  0  0  0  0  0  0  0  0
    1.1358   -6.8990    2.3377 H   0  0  0  0  0  0  0  0  0  0  0  0
    1.0168   -5.7420    3.6495 H   0  0  0  0  0  0  0  0  0  0  0  0
   -2.7252   -3.8349    3.0801 H   0  0  0  0  0  0  0  0  0  0  0  0
   -2.1853   -6.8125    0.0129 H   0  0  0  0  0  0  0  0  0  0  0  0
   -0.6663   -7.5033    3.9768 H   0  0  0  0  0  0  0  0  0  0  0  0
    1.9372    0.1920   -2.6886 H   0  0  0  0  0  0  0  0  0  0  0  0
    1.4594   -3.9260   -0.6923 H   0  0  0  0  0  0  0  0  0  0  0  0
    3.0268   -3.7412    0.0380 H   0  0  0  0  0  0  0  0  0  0  0  0
   -3.6403   -5.7282    1.7389 H   0  0  0  0  0  0  0  0  0  0  0  0
   -2.9055   -4.5219    0.6867 H   0  0  0  0  0  0  0  0  0  0  0  0
   -1.2762   -5.1704    4.6323 H   0  0  0  0  0  0  0  0  0  0  0  0
   -2.6971   -6.0818    4.1254 H   0  0  0  0  0  0  0  0  0  0  0  0
   -2.4896   -7.8280    2.2875 H   0  0  0  0  0  0  0  0  0  0  0  0
   -0.9187   -8.2320    1.6136 H   0  0  0  0  0  0  0  0  0  0  0  0
   -0.2053    4.5970   -1.7877 H   0  0  0  0  0  0  0  0  0  0  0  0
    1.0792    4.2588   -3.8421 H   0  0  0  0  0  0  0  0  0  0  0  0
   -0.0807    3.8303    0.6746 H   0  0  0  0  0  0  0  0  0  0  0  0
   -1.6246    3.1458    0.1095 H   0  0  0  0  0  0  0  0  0  0  0  0
   -0.4437    2.1527    1.0127 H   0  0  0  0  0  0  0  0  0  0  0  0
    2.0961    2.4676   -5.4324 H   0  0  0  0  0  0  0  0  0  0  0  0
    3.4392    2.8905   -4.3504 H   0  0  0  0  0  0  0  0  0  0  0  0
    3.0458    1.1876   -4.6518 H   0  0  0  0  0  0  0  0  0  0  0  0
  2  1  1  0  0  0  0
  3  2  2  0  0  0  0
  3  5  1  0  0  0  0
  4  1  1  0  0  0  0
  5  4  2  0  0  0  0
  6  9  1  0  0  0  0
  7  1  1  0  0  0  0
  8  2  1  0  0  0  0
  9 18  1  0  0  0  0
 10  6  1  0  0  0  0
 10 28  1  0  0  0  0
 10 29  1  0  0  0  0
 11  6  1  0  0  0  0
 11 30  1  0  0  0  0
 11 31  1  0  0  0  0
 12  6  1  0  0  0  0
 12 32  1  0  0  0  0
 12 33  1  0  0  0  0
 13 11  1  0  0  0  0
 13 21  1  0  0  0  0
 13 34  1  0  0  0  0
 14 10  1  0  0  0  0
 14 35  1  0  0  0  0
 15 12  1  0  0  0  0
 15 36  1  0  0  0  0
 16  7  2  0  0  0  0
 17  7  1  0  0  0  0
 17 37  1  0  0  0  0
 18  8  1  0  0  0  0
 18 38  1  0  0  0  0
 18 39  1  0  0  0  0
 19  9  2  0  0  0  0
 20 13  1  0  0  0  0
 20 14  1  0  0  0  0
 20 40  1  0  0  0  0
 20 41  1  0  0  0  0
 21 15  1  0  0  0  0
 21 42  1  0  0  0  0
 21 43  1  0  0  0  0
 22 15  1  0  0  0  0
 22 14  1  0  0  0  0
 22 44  1  0  0  0  0
 22 45  1  0  0  0  0
 23 16  1  0  0  0  0
 23 25  2  0  0  0  0
 23 46  1  0  0  0  0
 24 17  2  0  0  0  0
 25 24  1  0  0  0  0
 25 47  1  0  0  0  0
 26 16  1  0  0  0  0
 26 48  1  0  0  0  0
 26 49  1  0  0  0  0
 26 50  1  0  0  0  0
 27 24  1  0  0  0  0
 27 51  1  0  0  0  0
 27 52  1  0  0  0  0
 27 53  1  0  0  0  0
M  END
>  <Mol_ID>
8815

>  <Formula>
C21H26N4OS

>  <MolWeight>
382.52234

>  <Cat>
P3080

>  <Name>
WAY-639483

>  <Synonyms>
N/A

>  <Target>
11¦Â-HSD1

>  <Form>
free base

>  <CAS>
791125-94-5

>  <URL>
N/A

$$$$
