WAY-656439
 OpenBabel08302521423D

 44 47  0  0  0  0  0  0  0  0999 V2000
   -1.5836   -1.2102   -0.0477 N   0  0  0  0  0  0  0  0  0  0  0  0
   -0.2868   -0.6951    0.0072 C   0  0  0  0  0  0  0  0  0  0  0  0
   -2.5072   -0.2142   -0.1242 N   0  0  0  0  0  0  0  0  0  0  0  0
   -0.4073    0.6910    0.0009 C   0  0  0  0  0  0  0  0  0  0  0  0
   -1.7991    0.9031   -0.0687 C   0  0  0  0  0  0  0  0  0  0  0  0
    0.7862    1.4382    0.0576 C   0  0  0  0  0  0  0  0  0  0  0  0
    0.8800   -1.3719    0.0533 N   0  0  0  0  0  0  0  0  0  0  0  0
    1.9643    0.7812    0.1162 N   0  0  0  0  0  0  0  0  0  0  0  0
    1.9472   -0.5619    0.1066 C   0  0  0  0  0  0  0  0  0  0  0  0
   -0.2821    5.0017   -0.2342 C   0  0  0  0  0  0  0  0  0  0  0  0
   -2.0475   -2.5551   -0.0311 C   0  0  0  0  0  0  0  0  0  0  0  0
    0.9292    2.8215    0.0602 O   0  0  0  0  0  0  0  0  0  0  0  0
    0.7164    5.6681   -0.9067 N   0  0  0  0  0  0  0  0  0  0  0  0
   -1.2507    5.5027    0.3349 O   0  0  0  0  0  0  0  0  0  0  0  0
   -0.2321    3.4918   -0.3614 C   0  0  0  0  0  0  0  0  0  0  0  0
    0.7345    7.0564   -1.1489 C   0  0  0  0  0  0  0  0  0  0  0  0
    0.7419    9.7835   -1.8421 C   0  0  0  0  0  0  0  0  0  0  0  0
   -0.1661    7.9484   -0.5594 C   0  0  0  0  0  0  0  0  0  0  0  0
    1.6730    7.5483   -2.0575 C   0  0  0  0  0  0  0  0  0  0  0  0
   -0.1661    9.2986   -0.9041 C   0  0  0  0  0  0  0  0  0  0  0  0
    1.6735    8.9030   -2.4061 C   0  0  0  0  0  0  0  0  0  0  0  0
   -1.1761   -3.6379    0.1090 C   0  0  0  0  0  0  0  0  0  0  0  0
   -3.4302   -2.7879   -0.1451 C   0  0  0  0  0  0  0  0  0  0  0  0
    0.7131   11.2247   -2.2487 C   0  0  0  0  0  0  0  0  0  0  0  0
   -3.9323   -4.0909   -0.1190 C   0  0  0  0  0  0  0  0  0  0  0  0
   -1.6874   -4.9383    0.1379 C   0  0  0  0  0  0  0  0  0  0  0  0
   -3.0589   -5.1642    0.0230 C   0  0  0  0  0  0  0  0  0  0  0  0
   -2.3721    1.8191   -0.0942 H   0  0  0  0  0  0  0  0  0  0  0  0
    2.9171   -1.0505    0.1414 H   0  0  0  0  0  0  0  0  0  0  0  0
    1.4372    5.1078   -1.3456 H   0  0  0  0  0  0  0  0  0  0  0  0
   -0.4525    3.2406   -1.4073 H   0  0  0  0  0  0  0  0  0  0  0  0
   -1.0528    3.2035    0.2934 H   0  0  0  0  0  0  0  0  0  0  0  0
   -0.8958    7.6336    0.1786 H   0  0  0  0  0  0  0  0  0  0  0  0
    2.3926    6.8863   -2.5312 H   0  0  0  0  0  0  0  0  0  0  0  0
   -0.8950    9.9564   -0.4363 H   0  0  0  0  0  0  0  0  0  0  0  0
    2.3952    9.2653   -3.1339 H   0  0  0  0  0  0  0  0  0  0  0  0
   -0.1024   -3.5116    0.2102 H   0  0  0  0  0  0  0  0  0  0  0  0
   -4.1365   -1.9698   -0.2554 H   0  0  0  0  0  0  0  0  0  0  0  0
    1.6649   11.7039   -2.0034 H   0  0  0  0  0  0  0  0  0  0  0  0
    0.5290   11.3080   -3.3236 H   0  0  0  0  0  0  0  0  0  0  0  0
   -0.0831   11.7689   -1.7289 H   0  0  0  0  0  0  0  0  0  0  0  0
   -5.0037   -4.2552   -0.2075 H   0  0  0  0  0  0  0  0  0  0  0  0
   -1.0113   -5.7806    0.2533 H   0  0  0  0  0  0  0  0  0  0  0  0
   -3.4499   -6.1785    0.0497 H   0  0  0  0  0  0  0  0  0  0  0  0
  2  1  1  0  0  0  0
  3  1  1  0  0  0  0
  4  2  2  0  0  0  0
  4  5  1  0  0  0  0
  5  3  2  0  0  0  0
  5 28  1  0  0  0  0
  6  4  1  0  0  0  0
  7  2  1  0  0  0  0
  8  9  1  0  0  0  0
  8  6  2  0  0  0  0
  9  7  2  0  0  0  0
  9 29  1  0  0  0  0
 10 15  1  0  0  0  0
 11  1  1  0  0  0  0
 12  6  1  0  0  0  0
 13 10  1  0  0  0  0
 13 30  1  0  0  0  0
 14 10  2  0  0  0  0
 15 12  1  0  0  0  0
 15 31  1  0  0  0  0
 15 32  1  0  0  0  0
 16 13  1  0  0  0  0
 17 21  2  0  0  0  0
 18 16  1  0  0  0  0
 18 33  1  0  0  0  0
 19 16  2  0  0  0  0
 19 34  1  0  0  0  0
 20 18  2  0  0  0  0
 20 17  1  0  0  0  0
 20 35  1  0  0  0  0
 21 19  1  0  0  0  0
 21 36  1  0  0  0  0
 22 11  2  0  0  0  0
 22 37  1  0  0  0  0
 23 11  1  0  0  0  0
 23 38  1  0  0  0  0
 24 17  1  0  0  0  0
 24 39  1  0  0  0  0
 24 40  1  0  0  0  0
 24 41  1  0  0  0  0
 25 23  2  0  0  0  0
 25 42  1  0  0  0  0
 26 22  1  0  0  0  0
 26 43  1  0  0  0  0
 27 25  1  0  0  0  0
 27 26  2  0  0  0  0
 27 44  1  0  0  0  0
M  END
>  <Mol_ID>
8528

>  <Formula>
C20H17N5O2

>  <MolWeight>
359.38128

>  <Cat>
P3139

>  <Name>
WAY-656439

>  <Synonyms>
N/A

>  <Target>
MCL-1

>  <Form>
free base

>  <CAS>
852828-79-6

>  <URL>
N/A

$$$$
