WAY-313165
 OpenBabel08302521403D

 45 46  0  0  0  0  0  0  0  0999 V2000
   -2.5615    0.0105   -1.8632 C   0  0  0  0  0  0  0  0  0  0  0  0
   -2.3868    0.6775   -0.6756 O   0  0  0  0  0  0  0  0  0  0  0  0
   -3.7795   -0.1847   -2.5165 C   0  0  0  0  0  0  0  0  0  0  0  0
   -1.3963   -0.4941   -2.4490 C   0  0  0  0  0  0  0  0  0  0  0  0
   -3.5709    1.1626   -0.0538 C   0  0  0  0  0  0  0  0  0  0  0  0
   -3.8300   -0.8276   -3.7558 C   0  0  0  0  0  0  0  0  0  0  0  0
   -1.4485   -1.1622   -3.6776 C   0  0  0  0  0  0  0  0  0  0  0  0
   -3.2805    1.9007    1.2588 C   0  0  0  0  0  0  0  0  0  0  0  0
   -2.6665   -1.3246   -4.3467 C   0  0  0  0  0  0  0  0  0  0  0  0
   -3.0274    3.2542    1.1434 N   0  0  0  0  0  0  0  0  0  0  0  0
   -3.2904    1.3192    2.3475 O   0  0  0  0  0  0  0  0  0  0  0  0
   -2.7336   -2.0445   -5.6598 C   0  0  0  0  0  0  0  0  0  0  0  0
   -2.7593    4.1059    2.3088 C   0  0  0  0  0  0  0  0  0  0  0  0
   -4.0808    4.6583    2.8636 C   0  0  0  0  0  0  0  0  0  0  0  0
   -1.7173    5.1663    1.9247 C   0  0  0  0  0  0  0  0  0  0  0  0
   -4.7234    5.7189    1.9659 C   0  0  0  0  0  0  0  0  0  0  0  0
   -1.2638    6.1132    3.0372 C   0  0  0  0  0  0  0  0  0  0  0  0
   -4.6117    7.1531    2.4804 C   0  0  0  0  0  0  0  0  0  0  0  0
   -2.2785    7.1128    3.6020 C   0  0  0  0  0  0  0  0  0  0  0  0
   -3.2102    7.7642    2.5794 C   0  0  0  0  0  0  0  0  0  0  0  0
   -4.7218    0.1521   -2.0961 H   0  0  0  0  0  0  0  0  0  0  0  0
   -0.4407   -0.3671   -1.9465 H   0  0  0  0  0  0  0  0  0  0  0  0
   -4.1048    1.8426   -0.7278 H   0  0  0  0  0  0  0  0  0  0  0  0
   -4.2298    0.3211    0.1986 H   0  0  0  0  0  0  0  0  0  0  0  0
   -4.7902   -0.9356   -4.2555 H   0  0  0  0  0  0  0  0  0  0  0  0
   -0.5293   -1.5563   -4.1090 H   0  0  0  0  0  0  0  0  0  0  0  0
   -3.2588    3.7121    0.2658 H   0  0  0  0  0  0  0  0  0  0  0  0
   -2.0573   -1.5822   -6.3853 H   0  0  0  0  0  0  0  0  0  0  0  0
   -2.4632   -3.0962   -5.5246 H   0  0  0  0  0  0  0  0  0  0  0  0
   -3.7450   -2.0095   -6.0803 H   0  0  0  0  0  0  0  0  0  0  0  0
   -2.3190    3.4628    3.0825 H   0  0  0  0  0  0  0  0  0  0  0  0
   -4.7889    3.8262    2.9695 H   0  0  0  0  0  0  0  0  0  0  0  0
   -3.9485    5.0281    3.8852 H   0  0  0  0  0  0  0  0  0  0  0  0
   -0.8217    4.6345    1.5712 H   0  0  0  0  0  0  0  0  0  0  0  0
   -2.0499    5.7423    1.0534 H   0  0  0  0  0  0  0  0  0  0  0  0
   -4.3493    5.6626    0.9380 H   0  0  0  0  0  0  0  0  0  0  0  0
   -5.7940    5.4852    1.8981 H   0  0  0  0  0  0  0  0  0  0  0  0
   -0.4229    6.6972    2.6372 H   0  0  0  0  0  0  0  0  0  0  0  0
   -0.8459    5.5296    3.8671 H   0  0  0  0  0  0  0  0  0  0  0  0
   -5.1954    7.7861    1.7985 H   0  0  0  0  0  0  0  0  0  0  0  0
   -5.1086    7.2241    3.4556 H   0  0  0  0  0  0  0  0  0  0  0  0
   -1.6945    7.9115    4.0806 H   0  0  0  0  0  0  0  0  0  0  0  0
   -2.8461    6.6699    4.4260 H   0  0  0  0  0  0  0  0  0  0  0  0
   -2.7400    7.8216    1.5919 H   0  0  0  0  0  0  0  0  0  0  0  0
   -3.3566    8.8065    2.8944 H   0  0  0  0  0  0  0  0  0  0  0  0
  1  2  1  0  0  0  0
  1  3  2  0  0  0  0
  1  4  1  0  0  0  0
  2  5  1  0  0  0  0
  3  6  1  0  0  0  0
  3 21  1  0  0  0  0
  4  7  2  0  0  0  0
  4 22  1  0  0  0  0
  5  8  1  0  0  0  0
  5 23  1  0  0  0  0
  5 24  1  0  0  0  0
  6  9  2  0  0  0  0
  6 25  1  0  0  0  0
  7  9  1  0  0  0  0
  7 26  1  0  0  0  0
  8 10  1  0  0  0  0
  8 11  2  0  0  0  0
  9 12  1  0  0  0  0
 10 13  1  0  0  0  0
 10 27  1  0  0  0  0
 12 28  1  0  0  0  0
 12 29  1  0  0  0  0
 12 30  1  0  0  0  0
 13 14  1  0  0  0  0
 13 15  1  0  0  0  0
 13 31  1  0  0  0  0
 14 16  1  0  0  0  0
 14 32  1  0  0  0  0
 14 33  1  0  0  0  0
 15 17  1  0  0  0  0
 15 34  1  0  0  0  0
 15 35  1  0  0  0  0
 16 18  1  0  0  0  0
 16 36  1  0  0  0  0
 16 37  1  0  0  0  0
 17 19  1  0  0  0  0
 17 38  1  0  0  0  0
 17 39  1  0  0  0  0
 18 20  1  0  0  0  0
 18 40  1  0  0  0  0
 18 41  1  0  0  0  0
 19 20  1  0  0  0  0
 19 42  1  0  0  0  0
 19 43  1  0  0  0  0
 20 44  1  0  0  0  0
 20 45  1  0  0  0  0
M  END
>  <Mol_ID>
8275

>  <Formula>
C17H25NO2

>  <MolWeight>
275.3859

>  <Cat>
P2242

>  <Name>
WAY-313165

>  <Synonyms>
N/A

>  <Target>
11¦Â-HSD1

>  <Form>
free base

>  <CAS>
332399-50-5

>  <URL>
N/A

$$$$
