WAY-310379
 OpenBabel08302521403D

 57 59  0  0  0  0  0  0  0  0999 V2000
    1.3638   -0.0201    0.0653 N   0  0  0  0  0  0  0  0  0  0  0  0
    3.0464   -0.0310   -0.2785 S   0  0  0  0  0  0  0  0  0  0  0  0
    0.6645    1.2269   -0.3384 C   0  0  0  0  0  0  0  0  0  0  0  0
    0.6455   -1.2435   -0.3824 C   0  0  0  0  0  0  0  0  0  0  0  0
    3.6979    1.0749    0.9542 C   0  0  0  0  0  0  0  0  0  0  0  0
    3.5732   -1.3448    0.0257 O   0  0  0  0  0  0  0  0  0  0  0  0
    3.2224    0.5706   -1.5799 O   0  0  0  0  0  0  0  0  0  0  0  0
   -0.7246    1.2587    0.2799 C   0  0  0  0  0  0  0  0  0  0  0  0
   -0.7605   -1.2506    0.2027 C   0  0  0  0  0  0  0  0  0  0  0  0
    3.4697    0.7881    2.3030 C   0  0  0  0  0  0  0  0  0  0  0  0
    4.4391    2.1979    0.5853 C   0  0  0  0  0  0  0  0  0  0  0  0
   -1.5410    0.0323   -0.1303 C   0  0  0  0  0  0  0  0  0  0  0  0
    3.9489    1.6550    3.2898 C   0  0  0  0  0  0  0  0  0  0  0  0
    4.9309    3.0489    1.5811 C   0  0  0  0  0  0  0  0  0  0  0  0
   -2.8746    0.0270    0.6048 C   0  0  0  0  0  0  0  0  0  0  0  0
    4.6760    2.7931    2.9343 C   0  0  0  0  0  0  0  0  0  0  0  0
   -3.6698    1.1326    0.3475 N   0  0  0  0  0  0  0  0  0  0  0  0
   -3.1848   -0.9181    1.3227 O   0  0  0  0  0  0  0  0  0  0  0  0
    5.1862    3.7184    3.8044 O   0  0  0  0  0  0  0  0  0  0  0  0
   -4.9153    1.3790    0.9630 C   0  0  0  0  0  0  0  0  0  0  0  0
    4.9441    3.4964    5.1898 C   0  0  0  0  0  0  0  0  0  0  0  0
   -5.3113    0.7383    2.1368 C   0  0  0  0  0  0  0  0  0  0  0  0
   -5.7893    2.2887    0.3624 C   0  0  0  0  0  0  0  0  0  0  0  0
   -6.5903    0.9230    2.6578 C   0  0  0  0  0  0  0  0  0  0  0  0
   -7.0776    2.4698    0.8803 C   0  0  0  0  0  0  0  0  0  0  0  0
   -7.5003    1.7675    2.0191 C   0  0  0  0  0  0  0  0  0  0  0  0
   -8.9156    1.8626    2.5539 C   0  0  0  0  0  0  0  0  0  0  0  0
   -9.2682    3.2848    2.9853 C   0  0  0  0  0  0  0  0  0  0  0  0
   -9.9202    1.3234    1.5333 C   0  0  0  0  0  0  0  0  0  0  0  0
    0.5846    1.2833   -1.4306 H   0  0  0  0  0  0  0  0  0  0  0  0
    1.2146    2.1040    0.0145 H   0  0  0  0  0  0  0  0  0  0  0  0
    1.1608   -2.1359   -0.0103 H   0  0  0  0  0  0  0  0  0  0  0  0
    0.6081   -1.2952   -1.4758 H   0  0  0  0  0  0  0  0  0  0  0  0
   -1.2331    2.1795   -0.0283 H   0  0  0  0  0  0  0  0  0  0  0  0
   -0.6446    1.2970    1.3747 H   0  0  0  0  0  0  0  0  0  0  0  0
   -0.6866   -1.3650    1.2937 H   0  0  0  0  0  0  0  0  0  0  0  0
   -1.3078   -2.1302   -0.1606 H   0  0  0  0  0  0  0  0  0  0  0  0
    2.9265   -0.1096    2.5905 H   0  0  0  0  0  0  0  0  0  0  0  0
    4.6490    2.4129   -0.4594 H   0  0  0  0  0  0  0  0  0  0  0  0
   -1.7485    0.0538   -1.2083 H   0  0  0  0  0  0  0  0  0  0  0  0
    3.7397    1.4108    4.3264 H   0  0  0  0  0  0  0  0  0  0  0  0
    5.5216    3.9194    1.3029 H   0  0  0  0  0  0  0  0  0  0  0  0
   -3.4298    1.7164   -0.4425 H   0  0  0  0  0  0  0  0  0  0  0  0
    3.8708    3.4759    5.4081 H   0  0  0  0  0  0  0  0  0  0  0  0
    5.4338    2.5778    5.5298 H   0  0  0  0  0  0  0  0  0  0  0  0
    5.3779    4.3319    5.7478 H   0  0  0  0  0  0  0  0  0  0  0  0
   -4.6456    0.0734    2.6774 H   0  0  0  0  0  0  0  0  0  0  0  0
   -5.5075    2.8291   -0.5366 H   0  0  0  0  0  0  0  0  0  0  0  0
   -6.8684    0.3729    3.5533 H   0  0  0  0  0  0  0  0  0  0  0  0
   -7.7603    3.1421    0.3658 H   0  0  0  0  0  0  0  0  0  0  0  0
   -8.9953    1.2281    3.4470 H   0  0  0  0  0  0  0  0  0  0  0  0
   -9.2432    3.9865    2.1454 H   0  0  0  0  0  0  0  0  0  0  0  0
  -10.2740    3.3148    3.4175 H   0  0  0  0  0  0  0  0  0  0  0  0
   -8.5659    3.6458    3.7450 H   0  0  0  0  0  0  0  0  0  0  0  0
   -9.6769    0.2916    1.2541 H   0  0  0  0  0  0  0  0  0  0  0  0
  -10.9328    1.3276    1.9495 H   0  0  0  0  0  0  0  0  0  0  0  0
   -9.9320    1.9216    0.6158 H   0  0  0  0  0  0  0  0  0  0  0  0
  1  2  1  0  0  0  0
  1  3  1  0  0  0  0
  1  4  1  0  0  0  0
  2  5  1  0  0  0  0
  2  6  2  0  0  0  0
  2  7  2  0  0  0  0
  3  8  1  0  0  0  0
  3 30  1  0  0  0  0
  3 31  1  0  0  0  0
  4  9  1  0  0  0  0
  4 32  1  0  0  0  0
  4 33  1  0  0  0  0
  5 10  2  0  0  0  0
  5 11  1  0  0  0  0
  8 12  1  0  0  0  0
  8 34  1  0  0  0  0
  8 35  1  0  0  0  0
  9 12  1  0  0  0  0
  9 36  1  0  0  0  0
  9 37  1  0  0  0  0
 10 13  1  0  0  0  0
 10 38  1  0  0  0  0
 11 14  2  0  0  0  0
 11 39  1  0  0  0  0
 12 15  1  0  0  0  0
 12 40  1  0  0  0  0
 13 16  2  0  0  0  0
 13 41  1  0  0  0  0
 14 16  1  0  0  0  0
 14 42  1  0  0  0  0
 15 17  1  0  0  0  0
 15 18  2  0  0  0  0
 16 19  1  0  0  0  0
 17 20  1  0  0  0  0
 17 43  1  0  0  0  0
 19 21  1  0  0  0  0
 20 22  2  0  0  0  0
 20 23  1  0  0  0  0
 21 44  1  0  0  0  0
 21 45  1  0  0  0  0
 21 46  1  0  0  0  0
 22 24  1  0  0  0  0
 22 47  1  0  0  0  0
 23 25  2  0  0  0  0
 23 48  1  0  0  0  0
 24 26  2  0  0  0  0
 24 49  1  0  0  0  0
 25 26  1  0  0  0  0
 25 50  1  0  0  0  0
 26 27  1  0  0  0  0
 27 28  1  0  0  0  0
 27 29  1  0  0  0  0
 27 51  1  0  0  0  0
 28 52  1  0  0  0  0
 28 53  1  0  0  0  0
 28 54  1  0  0  0  0
 29 55  1  0  0  0  0
 29 56  1  0  0  0  0
 29 57  1  0  0  0  0
M  END
>  <Mol_ID>
8303

>  <Formula>
C22H28N2O4S

>  <MolWeight>
416.53372

>  <Cat>
P2181

>  <Name>
WAY-310379

>  <Synonyms>
N/A

>  <Target>
hormone sensitive lipase

>  <Form>
free base

>  <CAS>
593258-66-3

>  <URL>
N/A

$$$$
