WAY-333707
 OpenBabel08302521453D

 41 43  0  0  0  0  0  0  0  0999 V2000
    1.7354    2.3132   -0.8540 S   0  0  0  0  0  0  0  0  0  0  0  0
   -0.3660    1.1486    0.2156 C   0  0  3  0  0  0  0  0  0  0  0  0
    1.0398    0.7680   -0.2779 C   0  0  0  0  0  0  0  0  0  0  0  0
   -0.7947    2.2231   -0.7812 C   0  0  0  0  0  0  0  0  0  0  0  0
   -0.5262    1.6913    1.5967 N   0  0  0  0  0  0  0  0  0  0  0  0
    0.1973    2.9102   -1.3740 C   0  0  0  0  0  0  0  0  0  0  0  0
    0.4778    1.5995    2.5769 C   0  0  0  0  0  0  0  0  0  0  0  0
    2.1934    3.1355    0.2521 O   0  0  0  0  0  0  0  0  0  0  0  0
    2.5647    2.0628   -2.0103 O   0  0  0  0  0  0  0  0  0  0  0  0
   -1.7944    2.2581    1.9141 C   0  0  0  0  0  0  0  0  0  0  0  0
    0.2100    2.1626    3.9861 C   0  0  0  0  0  0  0  0  0  0  0  0
    1.5669    1.0653    2.3543 O   0  0  0  0  0  0  0  0  0  0  0  0
   -1.8800    3.6399    2.1185 C   0  0  0  0  0  0  0  0  0  0  0  0
   -2.9335    1.4571    2.0505 C   0  0  0  0  0  0  0  0  0  0  0  0
    0.5769    1.1982    4.9703 O   0  0  0  0  0  0  0  0  0  0  0  0
   -4.2142    3.4157    2.6690 C   0  0  0  0  0  0  0  0  0  0  0  0
   -4.1458    2.0404    2.4377 C   0  0  0  0  0  0  0  0  0  0  0  0
   -3.0888    4.2188    2.4997 C   0  0  0  0  0  0  0  0  0  0  0  0
   -5.8388    4.1986    3.2354 Br  0  0  0  0  0  0  0  0  0  0  0  0
    0.4105    1.5638    6.2791 C   0  0  0  0  0  0  0  0  0  0  0  0
   -0.0690    2.7936    6.7365 C   0  0  0  0  0  0  0  0  0  0  0  0
    0.7675    0.5847    7.2094 C   0  0  0  0  0  0  0  0  0  0  0  0
    0.6511    0.8277    8.5796 C   0  0  0  0  0  0  0  0  0  0  0  0
   -0.1862    3.0377    8.1088 C   0  0  0  0  0  0  0  0  0  0  0  0
    0.1742    2.0562    9.0295 C   0  0  0  0  0  0  0  0  0  0  0  0
   -1.0181    0.2702    0.1276 H   0  0  0  0  0  0  0  0  0  0  0  0
    1.7081    0.2392    0.3940 H   0  0  0  0  0  0  0  0  0  0  0  0
    0.9478    0.1376   -1.1749 H   0  0  0  0  0  0  0  0  0  0  0  0
   -1.8391    2.4249   -0.9841 H   0  0  0  0  0  0  0  0  0  0  0  0
    0.1122    3.7086   -2.0932 H   0  0  0  0  0  0  0  0  0  0  0  0
    0.8379    3.0575    4.0828 H   0  0  0  0  0  0  0  0  0  0  0  0
   -0.8358    2.4217    4.1383 H   0  0  0  0  0  0  0  0  0  0  0  0
   -1.0019    4.2684    1.9851 H   0  0  0  0  0  0  0  0  0  0  0  0
   -2.8851    0.3793    1.9107 H   0  0  0  0  0  0  0  0  0  0  0  0
   -5.0262    1.4158    2.5764 H   0  0  0  0  0  0  0  0  0  0  0  0
   -3.1384    5.2920    2.6713 H   0  0  0  0  0  0  0  0  0  0  0  0
   -0.3579    3.5880    6.0570 H   0  0  0  0  0  0  0  0  0  0  0  0
    1.1440   -0.3749    6.8636 H   0  0  0  0  0  0  0  0  0  0  0  0
    0.9366    0.0583    9.2920 H   0  0  0  0  0  0  0  0  0  0  0  0
   -0.5563    3.9981    8.4585 H   0  0  0  0  0  0  0  0  0  0  0  0
    0.0863    2.2499   10.0956 H   0  0  0  0  0  0  0  0  0  0  0  0
  2  3  1  0  0  0  0
  2 26  1  0  0  0  0
  3  1  1  0  0  0  0
  3 27  1  0  0  0  0
  3 28  1  0  0  0  0
  4  6  2  0  0  0  0
  4  2  1  0  0  0  0
  4 29  1  0  0  0  0
  5  2  1  0  0  0  0
  6  1  1  0  0  0  0
  6 30  1  0  0  0  0
  7  5  1  0  0  0  0
  8  1  2  0  0  0  0
  9  1  2  0  0  0  0
 10  5  1  0  0  0  0
 11  7  1  0  0  0  0
 11 31  1  0  0  0  0
 11 32  1  0  0  0  0
 12  7  2  0  0  0  0
 13 10  2  0  0  0  0
 13 33  1  0  0  0  0
 14 10  1  0  0  0  0
 14 34  1  0  0  0  0
 15 11  1  0  0  0  0
 16 17  1  0  0  0  0
 16 18  2  0  0  0  0
 17 14  2  0  0  0  0
 17 35  1  0  0  0  0
 18 13  1  0  0  0  0
 18 36  1  0  0  0  0
 19 16  1  0  0  0  0
 20 15  1  0  0  0  0
 21 20  2  0  0  0  0
 21 37  1  0  0  0  0
 22 20  1  0  0  0  0
 22 38  1  0  0  0  0
 23 22  2  0  0  0  0
 23 39  1  0  0  0  0
 24 21  1  0  0  0  0
 24 25  2  0  0  0  0
 24 40  1  0  0  0  0
 25 23  1  0  0  0  0
 25 41  1  0  0  0  0
M  END
>  <Mol_ID>
9303

>  <Formula>
C18H16BrNO4S

>  <MolWeight>
422.29294

>  <Cat>
P2730

>  <Name>
WAY-333707

>  <Synonyms>
N/A

>  <Target>
GABAA receptor

>  <Form>
free base

>  <CAS>
956786-56-4

>  <URL>
N/A

$$$$
