WAY-332085
 OpenBabel08302521443D

 46 48  0  0  0  0  0  0  0  0999 V2000
   -0.1399    4.4382    1.7139 N   0  0  0  0  0  0  0  0  0  0  0  0
   -0.6213    3.2765    1.1430 C   0  0  0  0  0  0  0  0  0  0  0  0
   -1.0008    4.7075    2.6768 C   0  0  0  0  0  0  0  0  0  0  0  0
   -1.9978    3.7751    2.8074 O   0  0  0  0  0  0  0  0  0  0  0  0
   -1.7551    2.8722    1.8128 C   0  0  0  0  0  0  0  0  0  0  0  0
   -0.6961    3.3264   -1.5915 S   0  0  3  0  0  0  0  0  0  0  0  0
    0.0376    2.6841   -0.0461 C   0  0  0  0  0  0  0  0  0  0  0  0
   -0.7716    5.9577   -2.5191 C   0  0  0  0  0  0  0  0  0  0  0  0
   -0.2780    5.0908   -1.3469 C   0  0  0  0  0  0  0  0  0  0  0  0
   -0.0528    7.1106   -2.7700 N   0  0  0  0  0  0  0  0  0  0  0  0
   -1.0730    5.8688    3.5560 C   0  0  0  0  0  0  0  0  0  0  0  0
    0.1253    2.8067   -2.7384 O   0  0  0  0  0  0  0  0  0  0  0  0
   -1.7434    5.6506   -3.1895 O   0  0  0  0  0  0  0  0  0  0  0  0
   -0.1735    7.9130   -3.9734 C   0  0  0  0  0  0  0  0  0  0  0  0
   -2.7177    1.7674    1.6653 C   0  0  0  0  0  0  0  0  0  0  0  0
   -0.1552    6.9200    3.4045 C   0  0  0  0  0  0  0  0  0  0  0  0
   -2.0601    5.9763    4.5455 C   0  0  0  0  0  0  0  0  0  0  0  0
    0.8188    7.5025   -5.0733 C   0  0  0  0  0  0  0  0  0  0  0  0
    0.2251    9.3724   -3.7407 C   0  0  0  0  0  0  0  0  0  0  0  0
   -0.2266    8.0517    4.2213 C   0  0  0  0  0  0  0  0  0  0  0  0
   -2.1326    7.1073    5.3614 C   0  0  0  0  0  0  0  0  0  0  0  0
    0.9555    8.7375   -5.9710 C   0  0  0  0  0  0  0  0  0  0  0  0
    0.4471    9.9207   -5.1468 C   0  0  0  0  0  0  0  0  0  0  0  0
   -1.2163    8.1439    5.1977 C   0  0  0  0  0  0  0  0  0  0  0  0
    1.1106    2.8934   -0.0426 H   0  0  0  0  0  0  0  0  0  0  0  0
   -0.0888    1.5965   -0.0379 H   0  0  0  0  0  0  0  0  0  0  0  0
   -0.7844    5.4259   -0.4422 H   0  0  0  0  0  0  0  0  0  0  0  0
    0.8055    5.1901   -1.2277 H   0  0  0  0  0  0  0  0  0  0  0  0
    0.7233    7.2998   -2.1750 H   0  0  0  0  0  0  0  0  0  0  0  0
   -1.1932    7.8756   -4.3806 H   0  0  0  0  0  0  0  0  0  0  0  0
   -2.7813    1.1889    2.5910 H   0  0  0  0  0  0  0  0  0  0  0  0
   -3.7129    2.1548    1.4274 H   0  0  0  0  0  0  0  0  0  0  0  0
   -2.4176    1.0906    0.8610 H   0  0  0  0  0  0  0  0  0  0  0  0
    0.6200    6.8619    2.6438 H   0  0  0  0  0  0  0  0  0  0  0  0
   -2.7837    5.1761    4.6878 H   0  0  0  0  0  0  0  0  0  0  0  0
    1.7997    7.2588   -4.6450 H   0  0  0  0  0  0  0  0  0  0  0  0
    0.4832    6.6263   -5.6362 H   0  0  0  0  0  0  0  0  0  0  0  0
   -0.5447    9.9309   -3.2003 H   0  0  0  0  0  0  0  0  0  0  0  0
    1.1570    9.4435   -3.1631 H   0  0  0  0  0  0  0  0  0  0  0  0
    0.4893    8.8598    4.0944 H   0  0  0  0  0  0  0  0  0  0  0  0
   -2.9044    7.1760    6.1241 H   0  0  0  0  0  0  0  0  0  0  0  0
    1.9954    8.8854   -6.2854 H   0  0  0  0  0  0  0  0  0  0  0  0
    0.3552    8.6290   -6.8817 H   0  0  0  0  0  0  0  0  0  0  0  0
    1.1450   10.7653   -5.1583 H   0  0  0  0  0  0  0  0  0  0  0  0
   -0.5030   10.2765   -5.5638 H   0  0  0  0  0  0  0  0  0  0  0  0
   -1.2739    9.0238    5.8327 H   0  0  0  0  0  0  0  0  0  0  0  0
  2  1  1  0  0  0  0
  3  1  2  0  0  0  0
  4  3  1  0  0  0  0
  4  5  1  0  0  0  0
  5  2  2  0  0  0  0
  6  7  1  0  0  0  0
  7  2  1  0  0  0  0
  7 25  1  0  0  0  0
  7 26  1  0  0  0  0
  8  9  1  0  0  0  0
  9  6  1  0  0  0  0
  9 27  1  0  0  0  0
  9 28  1  0  0  0  0
 10  8  1  0  0  0  0
 10 29  1  0  0  0  0
 11  3  1  0  0  0  0
 12  6  2  0  0  0  0
 13  8  2  0  0  0  0
 14 10  1  0  0  0  0
 14 30  1  0  0  0  0
 15  5  1  0  0  0  0
 15 31  1  0  0  0  0
 15 32  1  0  0  0  0
 15 33  1  0  0  0  0
 16 11  2  0  0  0  0
 16 34  1  0  0  0  0
 17 11  1  0  0  0  0
 17 35  1  0  0  0  0
 18 14  1  0  0  0  0
 18 36  1  0  0  0  0
 18 37  1  0  0  0  0
 19 14  1  0  0  0  0
 19 38  1  0  0  0  0
 19 39  1  0  0  0  0
 20 16  1  0  0  0  0
 20 24  2  0  0  0  0
 20 40  1  0  0  0  0
 21 17  2  0  0  0  0
 21 41  1  0  0  0  0
 22 18  1  0  0  0  0
 22 23  1  0  0  0  0
 22 42  1  0  0  0  0
 22 43  1  0  0  0  0
 23 19  1  0  0  0  0
 23 44  1  0  0  0  0
 23 45  1  0  0  0  0
 24 21  1  0  0  0  0
 24 46  1  0  0  0  0
M  END
>  <Mol_ID>
9193

>  <Formula>
C18H22N2O3S

>  <MolWeight>
346.44388

>  <Cat>
P2724

>  <Name>
WAY-332085

>  <Synonyms>
N/A

>  <Target>
beta-catenin

>  <Form>
free base

>  <CAS>
1015859-80-9

>  <URL>
N/A

$$$$
