WAY-331981
 OpenBabel08302521443D

 43 45  0  0  0  0  0  0  0  0999 V2000
   -1.4676    0.6328   -0.0259 N   0  0  0  0  0  0  0  0  0  0  0  0
   -1.2771   -0.6713    0.0097 C   0  0  0  0  0  0  0  0  0  0  0  0
   -0.1946    1.1677   -0.0125 C   0  0  0  0  0  0  0  0  0  0  0  0
    0.0429   -1.0384    0.0525 O   0  0  0  0  0  0  0  0  0  0  0  0
    0.7283    0.1438    0.0345 C   0  0  0  0  0  0  0  0  0  0  0  0
   -2.2653   -1.7460   -0.0236 C   0  0  0  0  0  0  0  0  0  0  0  0
   -0.5771    2.9512   -6.1409 C   0  0  0  0  0  0  0  0  0  0  0  0
   -0.6320    2.6526   -4.7472 N   0  0  0  0  0  0  0  0  0  0  0  0
   -1.5465    3.2467   -3.8943 C   0  0  0  0  0  0  0  0  0  0  0  0
   -1.3285    2.1100   -7.1346 C   0  0  0  0  0  0  0  0  0  0  0  0
    0.1696    2.0470   -7.0837 C   0  0  0  0  0  0  0  0  0  0  0  0
   -2.4332    4.0110   -4.2707 O   0  0  0  0  0  0  0  0  0  0  0  0
   -3.6211   -1.4391   -0.2091 C   0  0  0  0  0  0  0  0  0  0  0  0
   -1.9032   -3.0907    0.1076 C   0  0  0  0  0  0  0  0  0  0  0  0
    0.2354    3.2162   -1.7875 S   0  0  0  0  0  0  0  0  0  0  0  0
    0.0093    2.6370   -0.0725 C   0  0  0  0  0  0  0  0  0  0  0  0
   -4.2262   -3.7908   -0.1244 C   0  0  0  0  0  0  0  0  0  0  0  0
   -5.3727   -5.1570   -0.2308 S   0  0  0  0  0  0  0  0  0  0  0  0
   -2.8726   -4.1007    0.0550 C   0  0  0  0  0  0  0  0  0  0  0  0
   -4.5920   -2.4523   -0.2645 C   0  0  0  0  0  0  0  0  0  0  0  0
   -1.4191    2.8037   -2.4475 C   0  0  0  0  0  0  0  0  0  0  0  0
    2.1992    0.0575    0.0457 C   0  0  0  0  0  0  0  0  0  0  0  0
   -6.8962   -4.4483    0.4491 C   0  0  0  0  0  0  0  0  0  0  0  0
   -0.5292    4.0193   -6.3452 H   0  0  0  0  0  0  0  0  0  0  0  0
    0.1470    2.1601   -4.3231 H   0  0  0  0  0  0  0  0  0  0  0  0
   -1.8929    1.2626   -6.7641 H   0  0  0  0  0  0  0  0  0  0  0  0
   -1.7924    2.6188   -7.9719 H   0  0  0  0  0  0  0  0  0  0  0  0
    0.7236    2.5080   -7.8932 H   0  0  0  0  0  0  0  0  0  0  0  0
    0.6211    1.1427   -6.6942 H   0  0  0  0  0  0  0  0  0  0  0  0
   -3.9317   -0.4020   -0.3275 H   0  0  0  0  0  0  0  0  0  0  0  0
   -0.8609   -3.3733    0.2474 H   0  0  0  0  0  0  0  0  0  0  0  0
   -0.8381    3.1636    0.3794 H   0  0  0  0  0  0  0  0  0  0  0  0
    0.8999    2.9155    0.5003 H   0  0  0  0  0  0  0  0  0  0  0  0
   -2.5547   -5.1364    0.1517 H   0  0  0  0  0  0  0  0  0  0  0  0
   -5.6230   -2.1614   -0.4418 H   0  0  0  0  0  0  0  0  0  0  0  0
   -1.5879    1.7240   -2.4182 H   0  0  0  0  0  0  0  0  0  0  0  0
   -2.1885    3.3083   -1.8554 H   0  0  0  0  0  0  0  0  0  0  0  0
    2.5442   -0.4964    0.9239 H   0  0  0  0  0  0  0  0  0  0  0  0
    2.5570   -0.4604   -0.8495 H   0  0  0  0  0  0  0  0  0  0  0  0
    2.6574    1.0508    0.0689 H   0  0  0  0  0  0  0  0  0  0  0  0
   -6.7207   -4.0227    1.4409 H   0  0  0  0  0  0  0  0  0  0  0  0
   -7.3038   -3.6844   -0.2177 H   0  0  0  0  0  0  0  0  0  0  0  0
   -7.6398   -5.2442    0.5418 H   0  0  0  0  0  0  0  0  0  0  0  0
  2  1  2  0  0  0  0
  3  1  1  0  0  0  0
  4  2  1  0  0  0  0
  4  5  1  0  0  0  0
  5  3  2  0  0  0  0
  6  2  1  0  0  0  0
  7  8  1  0  0  0  0
  7 24  1  0  0  0  0
  8  9  1  0  0  0  0
  8 25  1  0  0  0  0
  9 21  1  0  0  0  0
 10  7  1  0  0  0  0
 10 26  1  0  0  0  0
 10 27  1  0  0  0  0
 11  7  1  0  0  0  0
 11 10  1  0  0  0  0
 11 28  1  0  0  0  0
 11 29  1  0  0  0  0
 12  9  2  0  0  0  0
 13  6  2  0  0  0  0
 13 30  1  0  0  0  0
 14  6  1  0  0  0  0
 14 31  1  0  0  0  0
 15 16  1  0  0  0  0
 16  3  1  0  0  0  0
 16 32  1  0  0  0  0
 16 33  1  0  0  0  0
 17 19  1  0  0  0  0
 17 20  2  0  0  0  0
 18 17  1  0  0  0  0
 19 14  2  0  0  0  0
 19 34  1  0  0  0  0
 20 13  1  0  0  0  0
 20 35  1  0  0  0  0
 21 15  1  0  0  0  0
 21 36  1  0  0  0  0
 21 37  1  0  0  0  0
 22  5  1  0  0  0  0
 22 38  1  0  0  0  0
 22 39  1  0  0  0  0
 22 40  1  0  0  0  0
 23 18  1  0  0  0  0
 23 41  1  0  0  0  0
 23 42  1  0  0  0  0
 23 43  1  0  0  0  0
M  END
>  <Mol_ID>
9188

>  <Formula>
C17H20N2O2S2

>  <MolWeight>
348.4829

>  <Cat>
P2640

>  <Name>
WAY-331981

>  <Synonyms>
N/A

>  <Target>
beta-catenin

>  <Form>
free base

>  <CAS>
901721-89-9

>  <URL>
N/A

$$$$
