WAY-637195
 OpenBabel08302521423D

 23 23  0  0  0  0  0  0  0  0999 V2000
   -0.5963    1.3260   -0.0771 N   0  0  0  0  0  0  0  0  0  0  0  0
   -1.3844    0.2081   -0.2515 C   0  0  0  0  0  0  0  0  0  0  0  0
    0.7614    1.2055    0.1337 C   0  0  0  0  0  0  0  0  0  0  0  0
    1.3571    0.0569    0.2499 N   0  0  0  0  0  0  0  0  0  0  0  0
    0.6201   -1.1329    0.2200 N   0  0  0  0  0  0  0  0  0  0  0  0
   -0.6612   -1.0863    0.0231 C   0  0  0  0  0  0  0  0  0  0  0  0
   -2.5559    0.2079   -0.6109 O   0  0  0  0  0  0  0  0  0  0  0  0
   -1.1708    2.6320   -0.2538 N   0  0  0  0  0  0  0  0  0  0  0  0
   -1.0212   -3.0731    2.3574 C   0  0  0  0  0  0  0  0  0  0  0  0
   -1.4941   -2.3524    0.0024 C   0  0  0  0  0  0  0  0  0  0  0  0
    1.4860    2.3636    0.1905 N   0  0  0  0  0  0  0  0  0  0  0  0
   -1.4030   -2.0112    2.8199 O   0  0  0  0  0  0  0  0  0  0  0  0
   -0.9485   -3.4561    0.9042 C   0  0  0  0  0  0  0  0  0  0  0  0
   -0.6258   -4.0776    3.1634 O   0  0  0  0  0  0  0  0  0  0  0  0
   -1.0591    3.1073    0.6455 H   0  0  0  0  0  0  0  0  0  0  0  0
   -2.1834    2.4858   -0.3500 H   0  0  0  0  0  0  0  0  0  0  0  0
   -2.5212   -2.1155    0.3004 H   0  0  0  0  0  0  0  0  0  0  0  0
   -1.5210   -2.7072   -1.0334 H   0  0  0  0  0  0  0  0  0  0  0  0
    2.4724    2.2078   -0.0002 H   0  0  0  0  0  0  0  0  0  0  0  0
    1.0731    3.1016   -0.3695 H   0  0  0  0  0  0  0  0  0  0  0  0
   -1.5622   -4.3534    0.7672 H   0  0  0  0  0  0  0  0  0  0  0  0
    0.0893   -3.6983    0.6540 H   0  0  0  0  0  0  0  0  0  0  0  0
   -0.7004   -3.7104    4.0690 H   0  0  0  0  0  0  0  0  0  0  0  0
  2  1  1  0  0  0  0
  3  1  1  0  0  0  0
  4  3  2  0  0  0  0
  5  4  1  0  0  0  0
  6  2  1  0  0  0  0
  6  5  2  0  0  0  0
  7  2  2  0  0  0  0
  8  1  1  0  0  0  0
  8 15  1  0  0  0  0
  8 16  1  0  0  0  0
  9 13  1  0  0  0  0
 10  6  1  0  0  0  0
 10 17  1  0  0  0  0
 10 18  1  0  0  0  0
 11  3  1  0  0  0  0
 11 19  1  0  0  0  0
 11 20  1  0  0  0  0
 12  9  2  0  0  0  0
 13 10  1  0  0  0  0
 13 21  1  0  0  0  0
 13 22  1  0  0  0  0
 14  9  1  0  0  0  0
 14 23  1  0  0  0  0
M  END
>  <Mol_ID>
8481

>  <Formula>
C6H9N5O3

>  <MolWeight>
199.16736

>  <Cat>
P3007

>  <Name>
WAY-637195

>  <Synonyms>
N/A

>  <Target>
others

>  <Form>
free base

>  <CAS>
197793-89-8

>  <URL>
N/A

$$$$
