WAY-326405
 OpenBabel08302521433D

 40 42  0  0  0  0  0  0  0  0999 V2000
   -0.1339    0.5718    0.0974 N   0  0  0  0  0  0  0  0  0  0  0  0
    1.0178    1.3531    0.0871 C   0  0  0  0  0  0  0  0  0  0  0  0
    2.4255   -0.7001    0.0569 N   0  0  0  0  0  0  0  0  0  0  0  0
    2.3534    0.5973    0.0377 C   0  0  0  0  0  0  0  0  0  0  0  0
   -0.0378   -0.8466    0.1239 C   0  0  0  0  0  0  0  0  0  0  0  0
    1.2372   -1.4391    0.1199 C   0  0  0  0  0  0  0  0  0  0  0  0
    3.5758    1.4506   -0.0478 C   0  0  0  0  0  0  0  0  0  0  0  0
    4.8049    0.9120   -0.0823 C   0  0  0  0  0  0  0  0  0  0  0  0
    1.0270    2.5796    0.1161 O   0  0  0  0  0  0  0  0  0  0  0  0
    6.0382    1.7031   -0.2179 C   0  0  0  0  0  0  0  0  0  0  0  0
   -1.4278    1.2285    0.1313 C   0  0  0  0  0  0  0  0  0  0  0  0
    8.4182    3.1820   -0.5797 C   0  0  0  0  0  0  0  0  0  0  0  0
    6.1560    3.0036    0.2870 C   0  0  0  0  0  0  0  0  0  0  0  0
    7.1442    1.1327   -0.8609 C   0  0  0  0  0  0  0  0  0  0  0  0
    8.3204    1.8673   -1.0479 C   0  0  0  0  0  0  0  0  0  0  0  0
    7.3294    3.7395    0.0990 C   0  0  0  0  0  0  0  0  0  0  0  0
   -1.1730   -1.6707    0.1737 C   0  0  0  0  0  0  0  0  0  0  0  0
    1.3537   -2.8318    0.1829 C   0  0  0  0  0  0  0  0  0  0  0  0
    9.6534    4.0057   -0.8380 C   0  0  0  0  0  0  0  0  0  0  0  0
   -1.0405   -3.0612    0.2428 C   0  0  0  0  0  0  0  0  0  0  0  0
    0.2219   -3.6416    0.2526 C   0  0  0  0  0  0  0  0  0  0  0  0
    9.5428    4.7893   -2.1386 C   0  0  0  0  0  0  0  0  0  0  0  0
    3.4133    2.5207   -0.1061 H   0  0  0  0  0  0  0  0  0  0  0  0
    4.9313   -0.1687   -0.0543 H   0  0  0  0  0  0  0  0  0  0  0  0
   -2.0090    0.9345   -0.7491 H   0  0  0  0  0  0  0  0  0  0  0  0
   -1.9557    0.9446    1.0471 H   0  0  0  0  0  0  0  0  0  0  0  0
   -1.3309    2.3171    0.1225 H   0  0  0  0  0  0  0  0  0  0  0  0
    5.3370    3.4690    0.8291 H   0  0  0  0  0  0  0  0  0  0  0  0
    7.0944    0.1163   -1.2455 H   0  0  0  0  0  0  0  0  0  0  0  0
    9.1549    1.4077   -1.5731 H   0  0  0  0  0  0  0  0  0  0  0  0
    7.3818    4.7570    0.4796 H   0  0  0  0  0  0  0  0  0  0  0  0
   -2.1771   -1.2587    0.1687 H   0  0  0  0  0  0  0  0  0  0  0  0
    2.3430   -3.2826    0.1834 H   0  0  0  0  0  0  0  0  0  0  0  0
    9.8139    4.6982   -0.0027 H   0  0  0  0  0  0  0  0  0  0  0  0
   10.5360    3.3559   -0.8696 H   0  0  0  0  0  0  0  0  0  0  0  0
   -1.9276   -3.6877    0.2963 H   0  0  0  0  0  0  0  0  0  0  0  0
    0.3296   -4.7210    0.3146 H   0  0  0  0  0  0  0  0  0  0  0  0
    9.4561    4.1178   -2.9995 H   0  0  0  0  0  0  0  0  0  0  0  0
    8.6656    5.4456   -2.1364 H   0  0  0  0  0  0  0  0  0  0  0  0
   10.4309    5.4126   -2.2824 H   0  0  0  0  0  0  0  0  0  0  0  0
  2  1  1  0  0  0  0
  3  6  1  0  0  0  0
  3  4  2  0  0  0  0
  4  2  1  0  0  0  0
  5  1  1  0  0  0  0
  6  5  2  0  0  0  0
  7  4  1  0  0  0  0
  7 23  1  0  0  0  0
  8  7  2  0  0  0  0
  8 24  1  0  0  0  0
  9  2  2  0  0  0  0
 10  8  1  0  0  0  0
 11  1  1  0  0  0  0
 11 25  1  0  0  0  0
 11 26  1  0  0  0  0
 11 27  1  0  0  0  0
 12 15  2  0  0  0  0
 13 10  1  0  0  0  0
 13 28  1  0  0  0  0
 14 10  2  0  0  0  0
 14 29  1  0  0  0  0
 15 14  1  0  0  0  0
 15 30  1  0  0  0  0
 16 13  2  0  0  0  0
 16 12  1  0  0  0  0
 16 31  1  0  0  0  0
 17  5  1  0  0  0  0
 17 32  1  0  0  0  0
 18  6  1  0  0  0  0
 18 33  1  0  0  0  0
 19 12  1  0  0  0  0
 19 34  1  0  0  0  0
 19 35  1  0  0  0  0
 20 17  2  0  0  0  0
 20 36  1  0  0  0  0
 21 20  1  0  0  0  0
 21 18  2  0  0  0  0
 21 37  1  0  0  0  0
 22 19  1  0  0  0  0
 22 38  1  0  0  0  0
 22 39  1  0  0  0  0
 22 40  1  0  0  0  0
M  END
>  <Mol_ID>
8921

>  <Formula>
C19H18N2O

>  <MolWeight>
290.35902

>  <Cat>
P2480

>  <Name>
WAY-326405

>  <Synonyms>
N/A

>  <Target>
Androgen Receptor

>  <Form>
free base

>  <CAS>
870760-35-3

>  <URL>
N/A

$$$$
