WAY-324127
 OpenBabel08302521423D

 50 53  0  0  0  0  0  0  0  0999 V2000
   -2.2673    0.0433   -0.1759 C   0  0  0  0  0  0  0  0  0  0  0  0
   -1.3770   -0.6676    0.4972 N   0  0  0  0  0  0  0  0  0  0  0  0
   -1.6363    1.0242   -0.9058 N   0  0  0  0  0  0  0  0  0  0  0  0
   -5.9240    0.0860   -1.2618 C   0  0  0  0  0  0  0  0  0  0  0  0
   -3.7199   -0.1362   -0.1645 C   0  0  0  0  0  0  0  0  0  0  0  0
   -0.1455   -0.1624    0.1478 C   0  0  0  0  0  0  0  0  0  0  0  0
   -0.2851    0.8994   -0.7321 C   0  0  0  0  0  0  0  0  0  0  0  0
   -6.7036    0.5213   -2.3886 N   0  0  0  0  0  0  0  0  0  0  0  0
   -4.5298    0.2734   -1.2461 C   0  0  0  0  0  0  0  0  0  0  0  0
   -6.3455    1.5414   -3.2854 C   0  0  0  0  0  0  0  0  0  0  0  0
   -6.5061   -0.5883   -0.1647 C   0  0  0  0  0  0  0  0  0  0  0  0
   -7.6325    3.0145   -4.9742 O   0  0  0  0  0  0  0  0  0  0  0  0
   -8.8724    3.5173   -4.6609 C   0  0  0  0  0  0  0  0  0  0  0  0
   -4.3223   -0.7413    0.9330 C   0  0  0  0  0  0  0  0  0  0  0  0
   -5.3622    2.2702   -3.1445 O   0  0  0  0  0  0  0  0  0  0  0  0
   -5.6953   -0.9621    0.9347 C   0  0  0  0  0  0  0  0  0  0  0  0
   -9.4464    4.5606   -5.4234 C   0  0  0  0  0  0  0  0  0  0  0  0
   -7.2663    1.6982   -4.5392 C   0  0  0  0  0  0  0  0  0  0  0  0
   -8.9783    5.1962   -6.5425 O   0  0  0  0  0  0  0  0  0  0  0  0
    1.1426   -0.5616    0.5390 C   0  0  0  0  0  0  0  0  0  0  0  0
    0.7944    1.6132   -1.2580 C   0  0  0  0  0  0  0  0  0  0  0  0
   -7.9749   -0.8721   -0.0045 C   0  0  0  0  0  0  0  0  0  0  0  0
   -9.5810    3.0562   -3.5419 C   0  0  0  0  0  0  0  0  0  0  0  0
  -10.7006    5.0904   -5.0586 C   0  0  0  0  0  0  0  0  0  0  0  0
   -7.6899    4.8770   -7.0243 C   0  0  0  0  0  0  0  0  0  0  0  0
    2.2468    0.1311    0.0201 C   0  0  0  0  0  0  0  0  0  0  0  0
    2.0705    1.1997   -0.8626 C   0  0  0  0  0  0  0  0  0  0  0  0
  -10.8255    3.5978   -3.1915 C   0  0  0  0  0  0  0  0  0  0  0  0
  -11.3866    4.6149   -3.9477 C   0  0  0  0  0  0  0  0  0  0  0  0
   -2.0996    1.7161   -1.4735 H   0  0  0  0  0  0  0  0  0  0  0  0
   -7.6317    0.1287   -2.4663 H   0  0  0  0  0  0  0  0  0  0  0  0
   -4.0422    0.6974   -2.1169 H   0  0  0  0  0  0  0  0  0  0  0  0
   -3.7224   -1.0452    1.7908 H   0  0  0  0  0  0  0  0  0  0  0  0
   -6.1362   -1.4287    1.8155 H   0  0  0  0  0  0  0  0  0  0  0  0
   -6.6430    1.3102   -5.3581 H   0  0  0  0  0  0  0  0  0  0  0  0
   -8.1244    1.0180   -4.5041 H   0  0  0  0  0  0  0  0  0  0  0  0
    1.2755   -1.3936    1.2223 H   0  0  0  0  0  0  0  0  0  0  0  0
    0.6546    2.4404   -1.9430 H   0  0  0  0  0  0  0  0  0  0  0  0
   -8.4751   -0.0075    0.4416 H   0  0  0  0  0  0  0  0  0  0  0  0
   -8.4499   -1.1376   -0.9505 H   0  0  0  0  0  0  0  0  0  0  0  0
   -8.1264   -1.7287    0.6666 H   0  0  0  0  0  0  0  0  0  0  0  0
   -9.1766    2.2878   -2.8956 H   0  0  0  0  0  0  0  0  0  0  0  0
  -11.1364    5.8941   -5.6492 H   0  0  0  0  0  0  0  0  0  0  0  0
   -6.9252    5.0612   -6.2658 H   0  0  0  0  0  0  0  0  0  0  0  0
   -7.6637    3.8536   -7.4065 H   0  0  0  0  0  0  0  0  0  0  0  0
   -7.4840    5.5482   -7.8656 H   0  0  0  0  0  0  0  0  0  0  0  0
    3.2516   -0.1697    0.3076 H   0  0  0  0  0  0  0  0  0  0  0  0
    2.9428    1.7229   -1.2512 H   0  0  0  0  0  0  0  0  0  0  0  0
  -11.3486    3.2291   -2.3118 H   0  0  0  0  0  0  0  0  0  0  0  0
  -12.3458    5.0473   -3.6721 H   0  0  0  0  0  0  0  0  0  0  0  0
  2  1  2  0  0  0  0
  3  1  1  0  0  0  0
  3 30  1  0  0  0  0
  4  9  2  0  0  0  0
  5  1  1  0  0  0  0
  6  2  1  0  0  0  0
  6  7  2  0  0  0  0
  7  3  1  0  0  0  0
  8  4  1  0  0  0  0
  8 31  1  0  0  0  0
  9  5  1  0  0  0  0
  9 32  1  0  0  0  0
 10  8  1  0  0  0  0
 11 16  2  0  0  0  0
 11  4  1  0  0  0  0
 12 18  1  0  0  0  0
 13 12  1  0  0  0  0
 14  5  2  0  0  0  0
 14 33  1  0  0  0  0
 15 10  2  0  0  0  0
 16 14  1  0  0  0  0
 16 34  1  0  0  0  0
 17 13  2  0  0  0  0
 18 10  1  0  0  0  0
 18 35  1  0  0  0  0
 18 36  1  0  0  0  0
 19 17  1  0  0  0  0
 20  6  1  0  0  0  0
 20 37  1  0  0  0  0
 21  7  1  0  0  0  0
 21 38  1  0  0  0  0
 22 11  1  0  0  0  0
 22 39  1  0  0  0  0
 22 40  1  0  0  0  0
 22 41  1  0  0  0  0
 23 13  1  0  0  0  0
 23 42  1  0  0  0  0
 24 17  1  0  0  0  0
 24 29  2  0  0  0  0
 24 43  1  0  0  0  0
 25 19  1  0  0  0  0
 25 44  1  0  0  0  0
 25 45  1  0  0  0  0
 25 46  1  0  0  0  0
 26 20  2  0  0  0  0
 26 27  1  0  0  0  0
 26 47  1  0  0  0  0
 27 21  2  0  0  0  0
 27 48  1  0  0  0  0
 28 23  2  0  0  0  0
 28 49  1  0  0  0  0
 29 28  1  0  0  0  0
 29 50  1  0  0  0  0
M  END
>  <Mol_ID>
8610

>  <Formula>
C23H21N3O3

>  <MolWeight>
387.43114

>  <Cat>
P2305

>  <Name>
WAY-324127

>  <Synonyms>
N/A

>  <Target>
FOXO1

>  <Form>
free base

>  <CAS>
667410-33-5

>  <URL>
N/A

$$$$
