WAY-332026
 OpenBabel08302521443D

 46 48  0  0  0  0  0  0  0  0999 V2000
   -0.3334    3.1214    3.0070 C   0  0  0  0  0  0  0  0  0  0  0  0
    0.5738    3.1664    2.0428 N   0  0  0  0  0  0  0  0  0  0  0  0
   -0.0705    2.6117    0.9506 C   0  0  0  0  0  0  0  0  0  0  0  0
   -1.4854    2.4772    2.6519 O   0  0  0  0  0  0  0  0  0  0  0  0
   -0.2784    3.6915    4.3505 C   0  0  0  0  0  0  0  0  0  0  0  0
   -1.3253    2.1762    1.3341 C   0  0  0  0  0  0  0  0  0  0  0  0
   -0.4653    3.4722   -1.6597 S   0  0  3  0  0  0  0  0  0  0  0  0
    0.5539    2.6425   -0.3888 C   0  0  0  0  0  0  0  0  0  0  0  0
   -0.2324    5.2189   -1.1887 C   0  0  0  0  0  0  0  0  0  0  0  0
   -1.1025    5.6560   -0.0293 C   0  0  0  0  0  0  0  0  0  0  0  0
   -1.3426    3.6024    5.2568 C   0  0  0  0  0  0  0  0  0  0  0  0
   -1.2900    6.9705    0.2437 N   0  0  0  0  0  0  0  0  0  0  0  0
    0.2247    3.2720   -2.9803 O   0  0  0  0  0  0  0  0  0  0  0  0
   -1.7046    4.8854    0.7129 O   0  0  0  0  0  0  0  0  0  0  0  0
   -0.9389    8.1540   -0.5051 C   0  0  0  0  0  0  0  0  0  0  0  0
    2.5227    9.9087    1.3298 C   0  0  0  0  0  0  0  0  0  0  0  0
   -2.4960    3.0049    4.9213 F   0  0  0  0  0  0  0  0  0  0  0  0
    0.2645    8.8150    0.1010 C   0  0  0  0  0  0  0  0  0  0  0  0
    0.8795    4.3735    4.7684 C   0  0  0  0  0  0  0  0  0  0  0  0
    2.6634    9.1109    0.1962 C   0  0  0  0  0  0  0  0  0  0  0  0
    1.2629   10.1789    1.8422 C   0  0  0  0  0  0  0  0  0  0  0  0
    1.5336    8.5577   -0.4070 C   0  0  0  0  0  0  0  0  0  0  0  0
    0.1208    9.6225    1.2448 C   0  0  0  0  0  0  0  0  0  0  0  0
   -2.5146    1.6631    0.6276 C   0  0  0  0  0  0  0  0  0  0  0  0
   -1.2519    4.1311    6.5442 C   0  0  0  0  0  0  0  0  0  0  0  0
    0.9754    4.9088    6.0599 C   0  0  0  0  0  0  0  0  0  0  0  0
   -0.0860    4.7744    6.9525 C   0  0  0  0  0  0  0  0  0  0  0  0
    1.5468    3.1122   -0.3688 H   0  0  0  0  0  0  0  0  0  0  0  0
    0.6893    1.6115   -0.7327 H   0  0  0  0  0  0  0  0  0  0  0  0
    0.8263    5.4112   -0.9938 H   0  0  0  0  0  0  0  0  0  0  0  0
   -0.5375    5.7833   -2.0755 H   0  0  0  0  0  0  0  0  0  0  0  0
   -1.7869    7.1095    1.1173 H   0  0  0  0  0  0  0  0  0  0  0  0
   -0.7765    7.9077   -1.5622 H   0  0  0  0  0  0  0  0  0  0  0  0
   -1.7967    8.8227   -0.4557 H   0  0  0  0  0  0  0  0  0  0  0  0
    3.4073   10.3419    1.8011 H   0  0  0  0  0  0  0  0  0  0  0  0
    1.7150    4.4925    4.0819 H   0  0  0  0  0  0  0  0  0  0  0  0
    3.6544    8.8997   -0.2010 H   0  0  0  0  0  0  0  0  0  0  0  0
    1.1491   10.7967    2.7277 H   0  0  0  0  0  0  0  0  0  0  0  0
    1.6682    7.9199   -1.2832 H   0  0  0  0  0  0  0  0  0  0  0  0
   -0.8522    9.8181    1.6657 H   0  0  0  0  0  0  0  0  0  0  0  0
   -2.9950    0.8604    1.1975 H   0  0  0  0  0  0  0  0  0  0  0  0
   -3.2458    2.4704    0.4984 H   0  0  0  0  0  0  0  0  0  0  0  0
   -2.2603    1.2774   -0.3596 H   0  0  0  0  0  0  0  0  0  0  0  0
   -2.0949    4.0312    7.2213 H   0  0  0  0  0  0  0  0  0  0  0  0
    1.8838    5.4233    6.3659 H   0  0  0  0  0  0  0  0  0  0  0  0
   -0.0076    5.1761    7.9596 H   0  0  0  0  0  0  0  0  0  0  0  0
  2  1  2  0  0  0  0
  3  2  1  0  0  0  0
  4  1  1  0  0  0  0
  5  1  1  0  0  0  0
  6  4  1  0  0  0  0
  6  3  2  0  0  0  0
  7  8  1  0  0  0  0
  8  3  1  0  0  0  0
  8 28  1  0  0  0  0
  8 29  1  0  0  0  0
  9  7  1  0  0  0  0
  9 30  1  0  0  0  0
  9 31  1  0  0  0  0
 10  9  1  0  0  0  0
 11  5  2  0  0  0  0
 12 10  1  0  0  0  0
 12 32  1  0  0  0  0
 13  7  2  0  0  0  0
 14 10  2  0  0  0  0
 15 12  1  0  0  0  0
 15 33  1  0  0  0  0
 15 34  1  0  0  0  0
 16 21  2  0  0  0  0
 16 35  1  0  0  0  0
 17 11  1  0  0  0  0
 18 15  1  0  0  0  0
 19  5  1  0  0  0  0
 19 36  1  0  0  0  0
 20 22  2  0  0  0  0
 20 16  1  0  0  0  0
 20 37  1  0  0  0  0
 21 23  1  0  0  0  0
 21 38  1  0  0  0  0
 22 18  1  0  0  0  0
 22 39  1  0  0  0  0
 23 18  2  0  0  0  0
 23 40  1  0  0  0  0
 24  6  1  0  0  0  0
 24 41  1  0  0  0  0
 24 42  1  0  0  0  0
 24 43  1  0  0  0  0
 25 11  1  0  0  0  0
 25 27  2  0  0  0  0
 25 44  1  0  0  0  0
 26 19  2  0  0  0  0
 26 45  1  0  0  0  0
 27 26  1  0  0  0  0
 27 46  1  0  0  0  0
M  END
>  <Mol_ID>
9248

>  <Formula>
C20H18ClFN2O3S

>  <MolWeight>
420.8849232

>  <Cat>
P2674

>  <Name>
WAY-332026

>  <Synonyms>
N/A

>  <Target>
beta-catenin

>  <Form>
free base

>  <CAS>
1015857-81-4

>  <URL>
N/A

$$$$
