WAY-326081
 OpenBabel08302521433D

 42 45  0  0  0  0  0  0  0  0999 V2000
    0.2297   -0.7872    0.0674 C   0  0  0  0  0  0  0  0  0  0  0  0
    0.3316    0.6095    0.0342 N   0  0  0  0  0  0  0  0  0  0  0  0
    1.5253   -1.2758    0.0065 C   0  0  0  0  0  0  0  0  0  0  0  0
   -0.8049    1.4105    0.0344 C   0  0  0  0  0  0  0  0  0  0  0  0
   -0.9874   -1.4113    0.1231 N   0  0  0  0  0  0  0  0  0  0  0  0
    1.6261    1.0154    0.0248 N   0  0  0  0  0  0  0  0  0  0  0  0
   -2.0214    0.8380    0.0687 C   0  0  0  0  0  0  0  0  0  0  0  0
    1.9369   -2.6686   -0.0821 C   0  0  0  0  0  0  0  0  0  0  0  0
   -2.0535   -0.6595    0.0900 C   0  0  0  0  0  0  0  0  0  0  0  0
    2.3232   -0.1146   -0.0611 C   0  0  0  0  0  0  0  0  0  0  0  0
    3.1331   -3.0418    0.5457 N   0  0  0  0  0  0  0  0  0  0  0  0
   -0.5913    2.8811    0.0130 C   0  0  0  0  0  0  0  0  0  0  0  0
    1.2938   -3.4760   -0.7483 O   0  0  0  0  0  0  0  0  0  0  0  0
   -3.4035   -1.2993    0.0972 C   0  0  0  0  0  0  0  0  0  0  0  0
    4.6360   -4.7339    2.7841 S   0  0  0  0  0  0  0  0  0  0  0  0
   -0.4366    3.3239   -1.2641 F   0  0  0  0  0  0  0  0  0  0  0  0
   -1.6880    3.5369    0.4940 F   0  0  0  0  0  0  0  0  0  0  0  0
    3.7334   -4.3339    0.1918 C   0  0  0  0  0  0  0  0  0  0  0  0
    3.7611   -2.3335    1.6712 C   0  0  0  0  0  0  0  0  0  0  0  0
    3.7641   -3.1477    2.9679 C   0  0  0  0  0  0  0  0  0  0  0  0
    3.7112   -5.3471    1.3354 C   0  0  0  0  0  0  0  0  0  0  0  0
   -4.5054   -0.7190   -0.5468 C   0  0  0  0  0  0  0  0  0  0  0  0
   -3.5600   -2.5332    0.7426 C   0  0  0  0  0  0  0  0  0  0  0  0
   -4.8070   -3.1616    0.7693 C   0  0  0  0  0  0  0  0  0  0  0  0
   -5.7514   -1.3499   -0.5169 C   0  0  0  0  0  0  0  0  0  0  0  0
   -5.9024   -2.5689    0.1441 C   0  0  0  0  0  0  0  0  0  0  0  0
   -2.9330    1.4199    0.0952 H   0  0  0  0  0  0  0  0  0  0  0  0
    3.3997   -0.0498   -0.1608 H   0  0  0  0  0  0  0  0  0  0  0  0
    0.2656    3.2094    0.6076 H   0  0  0  0  0  0  0  0  0  0  0  0
    3.2257   -4.7695   -0.6765 H   0  0  0  0  0  0  0  0  0  0  0  0
    4.7648   -4.1342   -0.1247 H   0  0  0  0  0  0  0  0  0  0  0  0
    3.2361   -1.4039    1.8934 H   0  0  0  0  0  0  0  0  0  0  0  0
    4.7815   -2.0720    1.3677 H   0  0  0  0  0  0  0  0  0  0  0  0
    4.2539   -2.5748    3.7616 H   0  0  0  0  0  0  0  0  0  0  0  0
    2.7383   -3.3554    3.2909 H   0  0  0  0  0  0  0  0  0  0  0  0
    2.6847   -5.5625    1.6465 H   0  0  0  0  0  0  0  0  0  0  0  0
    4.1718   -6.2857    1.0128 H   0  0  0  0  0  0  0  0  0  0  0  0
   -4.4142    0.2113   -1.1009 H   0  0  0  0  0  0  0  0  0  0  0  0
   -2.7109   -3.0118    1.2270 H   0  0  0  0  0  0  0  0  0  0  0  0
   -4.9206   -4.1190    1.2721 H   0  0  0  0  0  0  0  0  0  0  0  0
   -6.6039   -0.8968   -1.0202 H   0  0  0  0  0  0  0  0  0  0  0  0
   -6.8708   -3.0623    0.1590 H   0  0  0  0  0  0  0  0  0  0  0  0
  2  1  1  0  0  0  0
  3  1  2  0  0  0  0
  4  2  1  0  0  0  0
  4  7  2  0  0  0  0
  5  1  1  0  0  0  0
  6  2  1  0  0  0  0
  6 10  2  0  0  0  0
  7  9  1  0  0  0  0
  7 27  1  0  0  0  0
  8  3  1  0  0  0  0
  9  5  2  0  0  0  0
 10  3  1  0  0  0  0
 10 28  1  0  0  0  0
 11  8  1  0  0  0  0
 12  4  1  0  0  0  0
 12 29  1  0  0  0  0
 13  8  2  0  0  0  0
 14  9  1  0  0  0  0
 15 20  1  0  0  0  0
 16 12  1  0  0  0  0
 17 12  1  0  0  0  0
 18 11  1  0  0  0  0
 18 30  1  0  0  0  0
 18 31  1  0  0  0  0
 19 11  1  0  0  0  0
 19 32  1  0  0  0  0
 19 33  1  0  0  0  0
 20 19  1  0  0  0  0
 20 34  1  0  0  0  0
 20 35  1  0  0  0  0
 21 18  1  0  0  0  0
 21 15  1  0  0  0  0
 21 36  1  0  0  0  0
 21 37  1  0  0  0  0
 22 14  2  0  0  0  0
 22 38  1  0  0  0  0
 23 14  1  0  0  0  0
 23 39  1  0  0  0  0
 24 23  2  0  0  0  0
 24 40  1  0  0  0  0
 25 22  1  0  0  0  0
 25 41  1  0  0  0  0
 26 24  1  0  0  0  0
 26 25  2  0  0  0  0
 26 42  1  0  0  0  0
M  END
>  <Mol_ID>
8885

>  <Formula>
C18H16F2N4OS

>  <MolWeight>
374.4076464

>  <Cat>
P2443

>  <Name>
WAY-326081

>  <Synonyms>
N/A

>  <Target>
11¦Â-HSD1

>  <Form>
free base

>  <CAS>
869713-00-8

>  <URL>
N/A

$$$$
