WAY-243545
 OpenBabel08302521403D

 37 38  0  0  0  0  0  0  0  0999 V2000
   -1.4291    0.3298   -0.2448 C   0  0  0  0  0  0  0  0  0  0  0  0
   -1.7636    0.3632   -1.6756 N   0  0  0  0  0  0  0  0  0  0  0  0
   -0.3055   -0.6727    0.0344 C   0  0  0  0  0  0  0  0  0  0  0  0
   -1.1044    1.7208    0.3269 C   0  0  0  0  0  0  0  0  0  0  0  0
   -2.9819    0.6972   -2.2372 C   0  0  0  0  0  0  0  0  0  0  0  0
    1.0810   -0.1528   -0.3474 C   0  0  0  0  0  0  0  0  0  0  0  0
    0.2887    2.2210   -0.0521 C   0  0  0  0  0  0  0  0  0  0  0  0
   -2.9112    0.7091   -3.6162 N   0  0  0  0  0  0  0  0  0  0  0  0
   -4.3729    1.0422   -1.3712 S   0  0  0  0  0  0  0  0  0  0  0  0
    1.3669    1.1995    0.2936 C   0  0  0  0  0  0  0  0  0  0  0  0
   -3.7410    1.4831   -4.5324 C   0  0  0  0  0  0  0  0  0  0  0  0
   -3.0860    2.8060   -4.8685 C   0  0  0  0  0  0  0  0  0  0  0  0
   -2.2163    2.9184   -5.9603 C   0  0  0  0  0  0  0  0  0  0  0  0
   -3.3175    3.9390   -4.0715 C   0  0  0  0  0  0  0  0  0  0  0  0
   -1.6024    4.1369   -6.2657 C   0  0  0  0  0  0  0  0  0  0  0  0
   -2.7064    5.1573   -4.3815 C   0  0  0  0  0  0  0  0  0  0  0  0
   -1.8526    5.2578   -5.4726 C   0  0  0  0  0  0  0  0  0  0  0  0
   -2.3193   -0.0356    0.2805 H   0  0  0  0  0  0  0  0  0  0  0  0
   -0.9858    0.2453   -2.3210 H   0  0  0  0  0  0  0  0  0  0  0  0
   -0.3001   -0.9016    1.1076 H   0  0  0  0  0  0  0  0  0  0  0  0
   -0.4984   -1.6163   -0.4875 H   0  0  0  0  0  0  0  0  0  0  0  0
   -1.8500    2.4582    0.0097 H   0  0  0  0  0  0  0  0  0  0  0  0
   -1.1637    1.6688    1.4227 H   0  0  0  0  0  0  0  0  0  0  0  0
    1.8407   -0.8765   -0.0278 H   0  0  0  0  0  0  0  0  0  0  0  0
    1.1611   -0.0701   -1.4373 H   0  0  0  0  0  0  0  0  0  0  0  0
    0.4933    3.1589    0.4767 H   0  0  0  0  0  0  0  0  0  0  0  0
    0.3226    2.4444   -1.1244 H   0  0  0  0  0  0  0  0  0  0  0  0
   -2.1876    0.1522   -4.0441 H   0  0  0  0  0  0  0  0  0  0  0  0
    1.4257    1.0832    1.3828 H   0  0  0  0  0  0  0  0  0  0  0  0
    2.3435    1.5672   -0.0402 H   0  0  0  0  0  0  0  0  0  0  0  0
   -3.8566    0.8924   -5.4525 H   0  0  0  0  0  0  0  0  0  0  0  0
   -4.7466    1.6476   -4.1355 H   0  0  0  0  0  0  0  0  0  0  0  0
   -2.0170    2.0544   -6.5959 H   0  0  0  0  0  0  0  0  0  0  0  0
   -3.9733    3.8798   -3.2081 H   0  0  0  0  0  0  0  0  0  0  0  0
   -0.9310    4.2099   -7.1134 H   0  0  0  0  0  0  0  0  0  0  0  0
   -2.8975    6.0329   -3.7582 H   0  0  0  0  0  0  0  0  0  0  0  0
   -1.3744    6.2054   -5.7098 H   0  0  0  0  0  0  0  0  0  0  0  0
  1  2  1  0  0  0  0
  1  3  1  0  0  0  0
  1  4  1  0  0  0  0
  1 18  1  0  0  0  0
  2  5  1  0  0  0  0
  2 19  1  0  0  0  0
  3  6  1  0  0  0  0
  3 20  1  0  0  0  0
  3 21  1  0  0  0  0
  4  7  1  0  0  0  0
  4 22  1  0  0  0  0
  4 23  1  0  0  0  0
  5  8  1  0  0  0  0
  5  9  2  0  0  0  0
  6 10  1  0  0  0  0
  6 24  1  0  0  0  0
  6 25  1  0  0  0  0
  7 10  1  0  0  0  0
  7 26  1  0  0  0  0
  7 27  1  0  0  0  0
  8 11  1  0  0  0  0
  8 28  1  0  0  0  0
 10 29  1  0  0  0  0
 10 30  1  0  0  0  0
 11 12  1  0  0  0  0
 11 31  1  0  0  0  0
 11 32  1  0  0  0  0
 12 13  2  0  0  0  0
 12 14  1  0  0  0  0
 13 15  1  0  0  0  0
 13 33  1  0  0  0  0
 14 16  2  0  0  0  0
 14 34  1  0  0  0  0
 15 17  2  0  0  0  0
 15 35  1  0  0  0  0
 16 17  1  0  0  0  0
 16 36  1  0  0  0  0
 17 37  1  0  0  0  0
M  END
>  <Mol_ID>
8346

>  <Formula>
C14H20N2S

>  <MolWeight>
248.387

>  <Cat>
P2075

>  <Name>
WAY-243545

>  <Synonyms>
N/A

>  <Target>
Anti-infection

>  <Form>
free base

>  <CAS>
78080-33-8

>  <URL>
N/A

$$$$
