WAY-327007
 OpenBabel08302521443D

 60 64  0  0  0  0  0  0  0  0999 V2000
    1.5449    0.7787   -0.0119 C   0  0  0  0  0  0  0  0  0  0  0  0
    1.6163   -0.5865    0.0386 N   0  0  0  0  0  0  0  0  0  0  0  0
    2.7572    1.2711    0.0187 N   0  0  0  0  0  0  0  0  0  0  0  0
   -0.8474   -0.6849   -0.0260 C   0  0  0  0  0  0  0  0  0  0  0  0
    0.4509   -1.4703   -0.0860 C   0  0  3  0  0  0  0  0  0  0  0  0
    2.8919   -1.0151    0.1286 N   0  0  0  0  0  0  0  0  0  0  0  0
   -0.8664    0.6641   -0.0591 C   0  0  0  0  0  0  0  0  0  0  0  0
    0.3330    1.3710   -0.0990 N   0  0  0  0  0  0  0  0  0  0  0  0
    3.5545    0.1472    0.0823 C   0  0  0  0  0  0  0  0  0  0  0  0
    0.5788   -2.2720   -1.3698 C   0  0  0  0  0  0  0  0  0  0  0  0
    0.8030   -3.8061   -3.7190 C   0  0  0  0  0  0  0  0  0  0  0  0
    0.7841   -4.4328   -2.4520 C   0  0  0  0  0  0  0  0  0  0  0  0
    0.7102   -2.3998   -3.8064 C   0  0  0  0  0  0  0  0  0  0  0  0
   -2.1124   -1.4438    0.1221 C   0  0  0  0  0  0  0  0  0  0  0  0
    0.5793   -1.6542   -2.6294 C   0  0  0  0  0  0  0  0  0  0  0  0
    0.6993   -3.6593   -1.2944 C   0  0  0  0  0  0  0  0  0  0  0  0
    5.3010    0.2356    0.1204 S   0  0  0  0  0  0  0  0  0  0  0  0
    7.2272   -1.5081   -0.9102 C   0  0  0  0  0  0  0  0  0  0  0  0
    5.7374   -1.2825   -0.7805 C   0  0  0  0  0  0  0  0  0  0  0  0
    7.8239   -2.6285   -0.3220 C   0  0  0  0  0  0  0  0  0  0  0  0
   -2.1435   -2.6601   -0.0626 O   0  0  0  0  0  0  0  0  0  0  0  0
   -2.1412    1.4743   -0.0652 C   0  0  0  0  0  0  0  0  0  0  0  0
    0.9791   -4.6577   -4.7866 O   0  0  0  0  0  0  0  0  0  0  0  0
    0.7797   -1.8111   -5.0425 O   0  0  0  0  0  0  0  0  0  0  0  0
    0.8593   -5.8070   -2.4134 O   0  0  0  0  0  0  0  0  0  0  0  0
    7.0782   -3.4770    0.4057 F   0  0  0  0  0  0  0  0  0  0  0  0
   -3.3123   -0.6963    0.6436 C   0  0  0  0  0  0  0  0  0  0  0  0
   -3.4485    0.6825    0.0257 C   0  0  0  0  0  0  0  0  0  0  0  0
    8.0419   -0.6570   -1.6717 C   0  0  0  0  0  0  0  0  0  0  0  0
    9.1792   -2.9093   -0.4821 C   0  0  0  0  0  0  0  0  0  0  0  0
    0.3162   -4.3183   -5.9968 C   0  0  0  0  0  0  0  0  0  0  0  0
    0.6905   -0.3932   -5.1215 C   0  0  0  0  0  0  0  0  0  0  0  0
    0.3683   -6.4186   -1.2216 C   0  0  0  0  0  0  0  0  0  0  0  0
    9.4061   -0.9314   -1.8361 C   0  0  0  0  0  0  0  0  0  0  0  0
    9.9745   -2.0591   -1.2447 C   0  0  0  0  0  0  0  0  0  0  0  0
    0.5046   -2.1228    0.7960 H   0  0  0  0  0  0  0  0  0  0  0  0
    0.2872    2.3879   -0.0843 H   0  0  0  0  0  0  0  0  0  0  0  0
    0.4988   -0.5724   -2.6649 H   0  0  0  0  0  0  0  0  0  0  0  0
    0.7222   -4.1189   -0.3114 H   0  0  0  0  0  0  0  0  0  0  0  0
    5.2785   -2.1382   -0.2746 H   0  0  0  0  0  0  0  0  0  0  0  0
    5.3085   -1.2393   -1.7887 H   0  0  0  0  0  0  0  0  0  0  0  0
   -2.1724    2.0654   -0.9913 H   0  0  0  0  0  0  0  0  0  0  0  0
   -2.1052    2.1962    0.7593 H   0  0  0  0  0  0  0  0  0  0  0  0
   -3.2157   -0.6359    1.7320 H   0  0  0  0  0  0  0  0  0  0  0  0
   -4.2154   -1.2820    0.4202 H   0  0  0  0  0  0  0  0  0  0  0  0
   -3.8764    0.5826   -0.9800 H   0  0  0  0  0  0  0  0  0  0  0  0
   -4.1800    1.2614    0.6043 H   0  0  0  0  0  0  0  0  0  0  0  0
    7.6191    0.2224   -2.1539 H   0  0  0  0  0  0  0  0  0  0  0  0
    9.6001   -3.7985   -0.0197 H   0  0  0  0  0  0  0  0  0  0  0  0
   -0.7217   -4.0138   -5.8243 H   0  0  0  0  0  0  0  0  0  0  0  0
    0.8720   -3.5602   -6.5552 H   0  0  0  0  0  0  0  0  0  0  0  0
    0.3003   -5.2133   -6.6266 H   0  0  0  0  0  0  0  0  0  0  0  0
   -0.2854   -0.0409   -4.7695 H   0  0  0  0  0  0  0  0  0  0  0  0
    1.5074    0.0894   -4.5742 H   0  0  0  0  0  0  0  0  0  0  0  0
    0.7853   -0.1081   -6.1733 H   0  0  0  0  0  0  0  0  0  0  0  0
    1.0587   -6.2607   -0.3854 H   0  0  0  0  0  0  0  0  0  0  0  0
   -0.6368   -6.0584   -0.9711 H   0  0  0  0  0  0  0  0  0  0  0  0
    0.3029   -7.4965   -1.3913 H   0  0  0  0  0  0  0  0  0  0  0  0
   10.0265   -0.2671   -2.4332 H   0  0  0  0  0  0  0  0  0  0  0  0
   11.0297   -2.2788   -1.3821 H   0  0  0  0  0  0  0  0  0  0  0  0
  2  1  1  0  0  0  0
  3  1  2  0  0  0  0
  4  7  2  0  0  0  0
  4  5  1  0  0  0  0
  5  2  1  0  0  0  0
  5 36  1  0  0  0  0
  6  2  1  0  0  0  0
  7  8  1  0  0  0  0
  8  1  1  0  0  0  0
  8 37  1  0  0  0  0
  9  3  1  0  0  0  0
  9  6  2  0  0  0  0
 10  5  1  0  0  0  0
 11 12  2  0  0  0  0
 11 13  1  0  0  0  0
 12 16  1  0  0  0  0
 13 15  2  0  0  0  0
 14  4  1  0  0  0  0
 14 27  1  0  0  0  0
 15 10  1  0  0  0  0
 15 38  1  0  0  0  0
 16 10  2  0  0  0  0
 16 39  1  0  0  0  0
 17  9  1  0  0  0  0
 18 19  1  0  0  0  0
 19 17  1  0  0  0  0
 19 40  1  0  0  0  0
 19 41  1  0  0  0  0
 20 18  2  0  0  0  0
 21 14  2  0  0  0  0
 22  7  1  0  0  0  0
 22 42  1  0  0  0  0
 22 43  1  0  0  0  0
 23 11  1  0  0  0  0
 24 13  1  0  0  0  0
 25 12  1  0  0  0  0
 26 20  1  0  0  0  0
 27 28  1  0  0  0  0
 27 44  1  0  0  0  0
 27 45  1  0  0  0  0
 28 22  1  0  0  0  0
 28 46  1  0  0  0  0
 28 47  1  0  0  0  0
 29 18  1  0  0  0  0
 29 48  1  0  0  0  0
 30 20  1  0  0  0  0
 30 35  2  0  0  0  0
 30 49  1  0  0  0  0
 31 23  1  0  0  0  0
 31 50  1  0  0  0  0
 31 51  1  0  0  0  0
 31 52  1  0  0  0  0
 32 24  1  0  0  0  0
 32 53  1  0  0  0  0
 32 54  1  0  0  0  0
 32 55  1  0  0  0  0
 33 25  1  0  0  0  0
 33 56  1  0  0  0  0
 33 57  1  0  0  0  0
 33 58  1  0  0  0  0
 34 29  2  0  0  0  0
 34 59  1  0  0  0  0
 35 34  1  0  0  0  0
 35 60  1  0  0  0  0
M  END
>  <Mol_ID>
8949

>  <Formula>
C25H25FN4O4S

>  <MolWeight>
496.5538032

>  <Cat>
P2508

>  <Name>
WAY-327007

>  <Synonyms>
N/A

>  <Target>
Anti-infection

>  <Form>
free base

>  <CAS>
536982-29-3

>  <URL>
N/A

$$$$
