WAY-326897
 OpenBabel08302521443D

 44 46  0  0  0  0  0  0  0  0999 V2000
   -5.7104   -5.3790   -2.3380 C   0  0  0  0  0  0  0  0  0  0  0  0
   -5.2106   -4.2513   -1.0902 S   0  0  0  0  0  0  0  0  0  0  0  0
   -6.4091   -6.5664   -2.0285 C   0  0  0  0  0  0  0  0  0  0  0  0
   -6.6192   -7.0996   -0.8113 N   0  0  0  0  0  0  0  0  0  0  0  0
   -7.5674   -8.4459   -1.0390 S   0  0  0  0  0  0  0  0  0  0  0  0
   -7.0065   -7.3962   -3.1379 C   0  0  0  0  0  0  0  0  0  0  0  0
   -7.6826   -8.4654   -2.6936 N   0  0  0  0  0  0  0  0  0  0  0  0
   -5.5326   -5.0752   -3.7038 C   0  0  0  0  0  0  0  0  0  0  0  0
   -0.8425   -5.8360   -1.5038 C   0  0  0  0  0  0  0  0  0  0  0  0
   -4.2925   -3.3068   -1.6813 O   0  0  0  0  0  0  0  0  0  0  0  0
   -6.4263   -3.8157   -0.4324 O   0  0  0  0  0  0  0  0  0  0  0  0
   -4.3519   -5.1966    0.0036 N   0  0  0  0  0  0  0  0  0  0  0  0
   -6.0791   -5.8706   -4.7379 C   0  0  0  0  0  0  0  0  0  0  0  0
   -0.0818   -5.5945   -0.3715 N   0  0  0  0  0  0  0  0  0  0  0  0
   -6.8456   -7.0246   -4.4946 C   0  0  0  0  0  0  0  0  0  0  0  0
   -2.3447   -5.9616   -1.2791 C   0  0  0  0  0  0  0  0  0  0  0  0
   -0.4019   -5.9429   -2.6471 O   0  0  0  0  0  0  0  0  0  0  0  0
    1.1480   -4.9040   -0.4199 C   0  0  0  0  0  0  0  0  0  0  0  0
   -2.8853   -5.2227   -0.0661 C   0  0  0  0  0  0  0  0  0  0  0  0
    3.3345   -3.1594   -0.5977 C   0  0  0  0  0  0  0  0  0  0  0  0
    1.3759   -3.9576    0.5843 C   0  0  0  0  0  0  0  0  0  0  0  0
    2.0680   -5.0444   -1.4564 C   0  0  0  0  0  0  0  0  0  0  0  0
    2.4458   -3.0694    0.4789 C   0  0  0  0  0  0  0  0  0  0  0  0
    3.1614   -4.1801   -1.5409 C   0  0  0  0  0  0  0  0  0  0  0  0
    4.4125   -2.1239   -0.7847 C   0  0  0  0  0  0  0  0  0  0  0  0
    3.9287   -0.9724   -1.6574 C   0  0  0  0  0  0  0  0  0  0  0  0
   -4.9776   -4.1776   -3.9845 H   0  0  0  0  0  0  0  0  0  0  0  0
   -4.8258   -6.0814    0.2107 H   0  0  0  0  0  0  0  0  0  0  0  0
   -5.9200   -5.5606   -5.7720 H   0  0  0  0  0  0  0  0  0  0  0  0
   -0.5535   -5.5261    0.5170 H   0  0  0  0  0  0  0  0  0  0  0  0
   -7.2903   -7.6023   -5.2967 H   0  0  0  0  0  0  0  0  0  0  0  0
   -2.6086   -7.0220   -1.2440 H   0  0  0  0  0  0  0  0  0  0  0  0
   -2.8032   -5.5398   -2.1811 H   0  0  0  0  0  0  0  0  0  0  0  0
   -2.4969   -4.1989   -0.0066 H   0  0  0  0  0  0  0  0  0  0  0  0
   -2.5503   -5.7262    0.8491 H   0  0  0  0  0  0  0  0  0  0  0  0
    0.6741   -3.8293    1.4039 H   0  0  0  0  0  0  0  0  0  0  0  0
    1.9430   -5.8090   -2.2188 H   0  0  0  0  0  0  0  0  0  0  0  0
    2.5519   -2.2769    1.2161 H   0  0  0  0  0  0  0  0  0  0  0  0
    3.8518   -4.2832   -2.3753 H   0  0  0  0  0  0  0  0  0  0  0  0
    4.7320   -1.7391    0.1910 H   0  0  0  0  0  0  0  0  0  0  0  0
    5.2953   -2.5890   -1.2381 H   0  0  0  0  0  0  0  0  0  0  0  0
    3.6017   -1.3257   -2.6416 H   0  0  0  0  0  0  0  0  0  0  0  0
    3.0839   -0.4498   -1.1946 H   0  0  0  0  0  0  0  0  0  0  0  0
    4.7337   -0.2467   -1.8084 H   0  0  0  0  0  0  0  0  0  0  0  0
  2  1  1  0  0  0  0
  3  1  1  0  0  0  0
  4  3  2  0  0  0  0
  5  4  1  0  0  0  0
  6  3  1  0  0  0  0
  7  6  2  0  0  0  0
  7  5  1  0  0  0  0
  8  1  2  0  0  0  0
  8 27  1  0  0  0  0
  9 16  1  0  0  0  0
 10  2  2  0  0  0  0
 11  2  2  0  0  0  0
 12  2  1  0  0  0  0
 12 28  1  0  0  0  0
 13  8  1  0  0  0  0
 13 29  1  0  0  0  0
 14  9  1  0  0  0  0
 14 30  1  0  0  0  0
 15 13  2  0  0  0  0
 15  6  1  0  0  0  0
 15 31  1  0  0  0  0
 16 19  1  0  0  0  0
 16 32  1  0  0  0  0
 16 33  1  0  0  0  0
 17  9  2  0  0  0  0
 18 14  1  0  0  0  0
 19 12  1  0  0  0  0
 19 34  1  0  0  0  0
 19 35  1  0  0  0  0
 20 24  2  0  0  0  0
 20 23  1  0  0  0  0
 21 18  1  0  0  0  0
 21 36  1  0  0  0  0
 22 18  2  0  0  0  0
 22 37  1  0  0  0  0
 23 21  2  0  0  0  0
 23 38  1  0  0  0  0
 24 22  1  0  0  0  0
 24 39  1  0  0  0  0
 25 20  1  0  0  0  0
 25 40  1  0  0  0  0
 25 41  1  0  0  0  0
 26 25  1  0  0  0  0
 26 42  1  0  0  0  0
 26 43  1  0  0  0  0
 26 44  1  0  0  0  0
M  END
>  <Mol_ID>
8946

>  <Formula>
C17H18N4O3S2

>  <MolWeight>
390.47982

>  <Cat>
P2505

>  <Name>
WAY-326897

>  <Synonyms>
N/A

>  <Target>
bacterial quorum-sensing receptors

>  <Form>
free base

>  <CAS>
892248-36-1

>  <URL>
N/A

$$$$
