WAY-639907
 OpenBabel08302521443D

 29 31  0  0  0  0  0  0  0  0999 V2000
   -1.5252   -1.1474   -0.2288 C   0  0  0  0  0  0  0  0  0  0  0  0
   -2.0825   -0.1114    0.4326 N   0  0  0  0  0  0  0  0  0  0  0  0
   -0.3523   -0.7413   -0.9346 C   0  0  0  0  0  0  0  0  0  0  0  0
   -1.2210    0.9036    0.2190 N   0  0  0  0  0  0  0  0  0  0  0  0
   -2.1001   -2.4996   -0.1944 C   0  0  0  0  0  0  0  0  0  0  0  0
   -0.1835    0.5999   -0.6214 C   0  0  0  0  0  0  0  0  0  0  0  0
   -3.4451   -2.5443    0.1019 N   0  0  0  0  0  0  0  0  0  0  0  0
   -6.6229   -3.6663   -0.9477 S   0  0  0  0  0  0  0  0  0  0  0  0
   -5.5822   -3.6146    0.4154 C   0  0  0  0  0  0  0  0  0  0  0  0
   -8.0169   -3.4951    0.0275 C   0  0  0  0  0  0  0  0  0  0  0  0
   -1.4362   -3.5118   -0.4181 O   0  0  0  0  0  0  0  0  0  0  0  0
   -6.2948   -3.4338    1.5851 C   0  0  0  0  0  0  0  0  0  0  0  0
   -7.7012   -3.3750    1.3622 C   0  0  0  0  0  0  0  0  0  0  0  0
   -4.1112   -3.8098    0.2485 C   0  0  0  0  0  0  0  0  0  0  0  0
    0.5653   -1.3568   -1.8081 C   0  0  0  0  0  0  0  0  0  0  0  0
    0.8697    1.3760   -1.1187 C   0  0  0  0  0  0  0  0  0  0  0  0
    1.6134   -0.5957   -2.3387 C   0  0  0  0  0  0  0  0  0  0  0  0
    1.7638    0.7472   -1.9934 C   0  0  0  0  0  0  0  0  0  0  0  0
   -1.4036    1.7931    0.6697 H   0  0  0  0  0  0  0  0  0  0  0  0
   -3.9078   -1.6655    0.3101 H   0  0  0  0  0  0  0  0  0  0  0  0
   -9.0000   -3.4938   -0.4235 H   0  0  0  0  0  0  0  0  0  0  0  0
   -5.8286   -3.3742    2.5614 H   0  0  0  0  0  0  0  0  0  0  0  0
   -8.4445   -3.2615    2.1422 H   0  0  0  0  0  0  0  0  0  0  0  0
   -3.8800   -4.4403   -0.6183 H   0  0  0  0  0  0  0  0  0  0  0  0
   -3.6925   -4.3086    1.1305 H   0  0  0  0  0  0  0  0  0  0  0  0
    0.4539   -2.4036   -2.0800 H   0  0  0  0  0  0  0  0  0  0  0  0
    0.9922    2.4198   -0.8529 H   0  0  0  0  0  0  0  0  0  0  0  0
    2.3139   -1.0594   -3.0282 H   0  0  0  0  0  0  0  0  0  0  0  0
    2.5884    1.3174   -2.4153 H   0  0  0  0  0  0  0  0  0  0  0  0
  2  1  2  0  0  0  0
  3  1  1  0  0  0  0
  4  2  1  0  0  0  0
  4 19  1  0  0  0  0
  5  1  1  0  0  0  0
  6  3  2  0  0  0  0
  6  4  1  0  0  0  0
  7  5  1  0  0  0  0
  7 20  1  0  0  0  0
  8  9  1  0  0  0  0
  9 14  1  0  0  0  0
 10  8  1  0  0  0  0
 10 13  2  0  0  0  0
 10 21  1  0  0  0  0
 11  5  2  0  0  0  0
 12  9  2  0  0  0  0
 12 22  1  0  0  0  0
 13 12  1  0  0  0  0
 13 23  1  0  0  0  0
 14  7  1  0  0  0  0
 14 24  1  0  0  0  0
 14 25  1  0  0  0  0
 15  3  1  0  0  0  0
 15 26  1  0  0  0  0
 16  6  1  0  0  0  0
 16 27  1  0  0  0  0
 17 15  2  0  0  0  0
 17 28  1  0  0  0  0
 18 17  1  0  0  0  0
 18 16  2  0  0  0  0
 18 29  1  0  0  0  0
M  END
>  <Mol_ID>
9086

>  <Formula>
C13H11N3OS

>  <MolWeight>
257.31094

>  <Cat>
P3093

>  <Name>
WAY-639907

>  <Synonyms>
N/A

>  <Target>
L-CPT1

>  <Form>
free base

>  <CAS>
851723-60-9

>  <URL>
N/A

$$$$
