WAY-323430
 OpenBabel08302521423D

 61 65  0  0  0  0  0  0  0  0999 V2000
    2.5280   -0.7513   -0.7421 C   0  0  0  0  0  0  0  0  0  0  0  0
    2.1632   -1.0434    0.5205 C   0  0  0  0  0  0  0  0  0  0  0  0
    2.3404    0.7433   -1.0098 C   0  0  0  0  0  0  0  0  0  0  0  0
    3.6961   -1.3811   -1.1964 N   0  0  0  0  0  0  0  0  0  0  0  0
    0.8009   -0.5796    0.8027 C   0  0  0  0  0  0  0  0  0  0  0  0
    1.6944    1.4848   -0.0137 O   0  0  0  0  0  0  0  0  0  0  0  0
    3.6190   -2.7905   -1.3110 C   0  0  0  0  0  0  0  0  0  0  0  0
    0.6163    0.7740    0.5236 C   0  0  0  0  0  0  0  0  0  0  0  0
    5.7299   -6.9063   -0.5503 N   0  0  0  0  0  0  0  0  0  0  0  0
    5.7681   -3.9450   -0.6201 N   0  0  0  0  0  0  0  0  0  0  0  0
    4.8732   -3.5536   -1.7365 C   0  0  0  0  0  0  0  0  0  0  0  0
    2.8767    1.3012   -1.9590 O   0  0  0  0  0  0  0  0  0  0  0  0
   -0.3410   -1.4044    0.7987 C   0  0  0  0  0  0  0  0  0  0  0  0
   -3.1630   -2.7079    0.9725 C   0  0  0  0  0  0  0  0  0  0  0  0
    2.5737   -3.4279   -1.1245 O   0  0  0  0  0  0  0  0  0  0  0  0
    6.4301   -6.2020   -1.6384 C   0  0  0  0  0  0  0  0  0  0  0  0
    4.6187   -6.1537    0.0567 C   0  0  0  0  0  0  0  0  0  0  0  0
   -1.6064   -0.8185    0.5970 C   0  0  0  0  0  0  0  0  0  0  0  0
   -2.7991   -1.5348    0.3171 O   0  0  0  0  0  0  0  0  0  0  0  0
    5.7926   -8.2887   -0.4695 C   0  0  0  0  0  0  0  0  0  0  0  0
   -0.6312    1.3802    0.4356 C   0  0  0  0  0  0  0  0  0  0  0  0
   -2.4967   -3.2868    1.8249 O   0  0  0  0  0  0  0  0  0  0  0  0
    5.1007   -4.7363    0.4478 C   0  0  0  0  0  0  0  0  0  0  0  0
    6.8689   -4.7941   -1.1560 C   0  0  0  0  0  0  0  0  0  0  0  0
    3.2952   -1.2834    1.5140 C   0  0  0  0  0  0  0  0  0  0  0  0
    4.8760   -0.8114   -0.5596 C   0  0  0  0  0  0  0  0  0  0  0  0
   -1.7531    0.5661    0.4509 C   0  0  0  0  0  0  0  0  0  0  0  0
    4.7642   -1.0604    0.9562 C   0  0  0  0  0  0  0  0  0  0  0  0
   -4.5359   -3.1225    0.5335 C   0  0  0  0  0  0  0  0  0  0  0  0
    7.0046   -8.9661   -0.6916 C   0  0  0  0  0  0  0  0  0  0  0  0
    4.6984   -9.0790   -0.0977 C   0  0  0  0  0  0  0  0  0  0  0  0
    4.8075  -10.4730    0.0612 C   0  0  0  0  0  0  0  0  0  0  0  0
    7.1229  -10.3522   -0.5445 C   0  0  0  0  0  0  0  0  0  0  0  0
    6.0224  -11.1058   -0.1649 C   0  0  0  0  0  0  0  0  0  0  0  0
    4.5083   -4.4247   -2.2915 H   0  0  0  0  0  0  0  0  0  0  0  0
    5.4221   -2.9366   -2.4565 H   0  0  0  0  0  0  0  0  0  0  0  0
   -0.2335   -2.4875    0.8044 H   0  0  0  0  0  0  0  0  0  0  0  0
    7.3232   -6.7245   -1.9910 H   0  0  0  0  0  0  0  0  0  0  0  0
    5.7661   -6.1277   -2.5082 H   0  0  0  0  0  0  0  0  0  0  0  0
    3.7690   -6.0953   -0.6326 H   0  0  0  0  0  0  0  0  0  0  0  0
    4.2761   -6.6365    0.9800 H   0  0  0  0  0  0  0  0  0  0  0  0
   -0.7164    2.4375    0.2076 H   0  0  0  0  0  0  0  0  0  0  0  0
    5.8336   -4.8522    1.2613 H   0  0  0  0  0  0  0  0  0  0  0  0
    4.2773   -4.1753    0.8977 H   0  0  0  0  0  0  0  0  0  0  0  0
    7.6161   -4.9234   -0.3606 H   0  0  0  0  0  0  0  0  0  0  0  0
    7.3864   -4.2667   -1.9657 H   0  0  0  0  0  0  0  0  0  0  0  0
    3.2328   -2.3050    1.9035 H   0  0  0  0  0  0  0  0  0  0  0  0
    3.1790   -0.6099    2.3712 H   0  0  0  0  0  0  0  0  0  0  0  0
    5.7963   -1.2191   -0.9885 H   0  0  0  0  0  0  0  0  0  0  0  0
    4.9097    0.2658   -0.7687 H   0  0  0  0  0  0  0  0  0  0  0  0
   -2.7315    0.9934    0.2449 H   0  0  0  0  0  0  0  0  0  0  0  0
    5.3629   -1.9442    1.2017 H   0  0  0  0  0  0  0  0  0  0  0  0
    5.2569   -0.2334    1.4820 H   0  0  0  0  0  0  0  0  0  0  0  0
   -5.2820   -2.4331    0.9405 H   0  0  0  0  0  0  0  0  0  0  0  0
   -4.6085   -3.1529   -0.5576 H   0  0  0  0  0  0  0  0  0  0  0  0
   -4.7495   -4.1286    0.9111 H   0  0  0  0  0  0  0  0  0  0  0  0
    7.9053   -8.4120   -0.9328 H   0  0  0  0  0  0  0  0  0  0  0  0
    3.7245   -8.6360    0.0867 H   0  0  0  0  0  0  0  0  0  0  0  0
    3.9382  -11.0530    0.3666 H   0  0  0  0  0  0  0  0  0  0  0  0
    8.0849  -10.8286   -0.7096 H   0  0  0  0  0  0  0  0  0  0  0  0
    6.1150  -12.1781   -0.0332 H   0  0  0  0  0  0  0  0  0  0  0  0
  2  1  2  0  0  0  0
  3  1  1  0  0  0  0
  4  1  1  0  0  0  0
  5  2  1  0  0  0  0
  6  3  1  0  0  0  0
  7  4  1  0  0  0  0
  8  6  1  0  0  0  0
  8  5  2  0  0  0  0
  9 16  1  0  0  0  0
  9 17  1  0  0  0  0
 10 11  1  0  0  0  0
 11  7  1  0  0  0  0
 11 35  1  0  0  0  0
 11 36  1  0  0  0  0
 12  3  2  0  0  0  0
 13  5  1  0  0  0  0
 13 37  1  0  0  0  0
 14 19  1  0  0  0  0
 15  7  2  0  0  0  0
 16 24  1  0  0  0  0
 16 38  1  0  0  0  0
 16 39  1  0  0  0  0
 17 23  1  0  0  0  0
 17 40  1  0  0  0  0
 17 41  1  0  0  0  0
 18 13  2  0  0  0  0
 19 18  1  0  0  0  0
 20  9  1  0  0  0  0
 21  8  1  0  0  0  0
 21 42  1  0  0  0  0
 22 14  2  0  0  0  0
 23 10  1  0  0  0  0
 23 43  1  0  0  0  0
 23 44  1  0  0  0  0
 24 10  1  0  0  0  0
 24 45  1  0  0  0  0
 24 46  1  0  0  0  0
 25  2  1  0  0  0  0
 25 28  1  0  0  0  0
 25 47  1  0  0  0  0
 25 48  1  0  0  0  0
 26  4  1  0  0  0  0
 26 49  1  0  0  0  0
 26 50  1  0  0  0  0
 27 21  2  0  0  0  0
 27 18  1  0  0  0  0
 27 51  1  0  0  0  0
 28 26  1  0  0  0  0
 28 52  1  0  0  0  0
 28 53  1  0  0  0  0
 29 14  1  0  0  0  0
 29 54  1  0  0  0  0
 29 55  1  0  0  0  0
 29 56  1  0  0  0  0
 30 20  2  0  0  0  0
 30 57  1  0  0  0  0
 31 20  1  0  0  0  0
 31 58  1  0  0  0  0
 32 31  2  0  0  0  0
 32 59  1  0  0  0  0
 33 30  1  0  0  0  0
 33 60  1  0  0  0  0
 34 32  1  0  0  0  0
 34 33  2  0  0  0  0
 34 61  1  0  0  0  0
M  END
>  <Mol_ID>
8580

>  <Formula>
C26H27N3O5

>  <MolWeight>
461.50968

>  <Cat>
P2265

>  <Name>
WAY-323430

>  <Synonyms>
N/A

>  <Target>
AChE

>  <Form>
free base

>  <CAS>
854033-64-0

>  <URL>
N/A

$$$$
