WAY-619359
 OpenBabel08302521433D

 51 54  0  0  0  0  0  0  0  0999 V2000
    1.3874    1.0974   -0.0402 C   0  0  0  0  0  0  0  0  0  0  0  0
    1.3525   -0.2610   -0.0366 C   0  0  0  0  0  0  0  0  0  0  0  0
    0.0994    1.8993   -0.0889 C   0  0  3  0  0  0  0  0  0  0  0  0
   -1.0832   -0.2858   -0.0292 C   0  0  0  0  0  0  0  0  0  0  0  0
    0.1259   -0.8908   -0.0944 N   0  0  0  0  0  0  0  0  0  0  0  0
   -1.0703    1.0569    0.0670 N   0  0  0  0  0  0  0  0  0  0  0  0
    2.7110    1.8088    0.0551 C   0  0  0  0  0  0  0  0  0  0  0  0
   -1.2131    5.9209    3.8001 N   0  0  0  0  0  0  0  0  0  0  0  0
   -0.0760    3.0443    0.8964 C   0  0  0  0  0  0  0  0  0  0  0  0
   -0.8290    5.0207    2.8198 C   0  0  0  0  0  0  0  0  0  0  0  0
   -2.1303   -0.9219   -0.0296 O   0  0  0  0  0  0  0  0  0  0  0  0
    3.6511    1.3091    0.6729 O   0  0  0  0  0  0  0  0  0  0  0  0
    2.9224    3.1787   -0.4946 C   0  0  0  0  0  0  0  0  0  0  0  0
   -0.8965    4.1302    0.5464 C   0  0  0  0  0  0  0  0  0  0  0  0
    0.4081    2.9869    2.2043 C   0  0  0  0  0  0  0  0  0  0  0  0
    0.0448    3.9669    3.1355 C   0  0  0  0  0  0  0  0  0  0  0  0
   -1.2600    5.0991    1.4916 C   0  0  0  0  0  0  0  0  0  0  0  0
   -3.6145    6.9513    5.0057 O   0  0  0  0  0  0  0  0  0  0  0  0
    2.4916   -1.2458    0.0216 C   0  0  0  0  0  0  0  0  0  0  0  0
   -1.7137    7.2709    3.4935 C   0  0  0  0  0  0  0  0  0  0  0  0
   -1.6962    5.3929    5.0957 C   0  0  0  0  0  0  0  0  0  0  0  0
   -3.2170    5.5918    5.2444 C   0  0  0  0  0  0  0  0  0  0  0  0
   -3.2350    7.3492    3.6782 C   0  0  0  0  0  0  0  0  0  0  0  0
    3.8595    3.9927    0.1649 C   0  0  0  0  0  0  0  0  0  0  0  0
    2.2831    3.6749   -1.6348 C   0  0  0  0  0  0  0  0  0  0  0  0
    2.5083    4.9937   -2.0478 C   0  0  0  0  0  0  0  0  0  0  0  0
    4.1024    5.2980   -0.2637 C   0  0  0  0  0  0  0  0  0  0  0  0
    3.4102    5.8047   -1.3590 C   0  0  0  0  0  0  0  0  0  0  0  0
   -0.0059    2.2944   -1.1046 H   0  0  0  0  0  0  0  0  0  0  0  0
    0.0790   -1.9041   -0.1021 H   0  0  0  0  0  0  0  0  0  0  0  0
   -1.9839    1.4850    0.1441 H   0  0  0  0  0  0  0  0  0  0  0  0
   -1.3067    4.2072   -0.4590 H   0  0  0  0  0  0  0  0  0  0  0  0
    1.0463    2.1698    2.5329 H   0  0  0  0  0  0  0  0  0  0  0  0
    0.4629    3.8972    4.1374 H   0  0  0  0  0  0  0  0  0  0  0  0
   -1.9371    5.8853    1.1721 H   0  0  0  0  0  0  0  0  0  0  0  0
    2.3842   -1.8810    0.9098 H   0  0  0  0  0  0  0  0  0  0  0  0
    2.4600   -1.8978   -0.8589 H   0  0  0  0  0  0  0  0  0  0  0  0
    3.4903   -0.8165    0.0512 H   0  0  0  0  0  0  0  0  0  0  0  0
   -1.2419    7.9577    4.2072 H   0  0  0  0  0  0  0  0  0  0  0  0
   -1.4218    7.6142    2.4957 H   0  0  0  0  0  0  0  0  0  0  0  0
   -1.1817    5.9442    5.8905 H   0  0  0  0  0  0  0  0  0  0  0  0
   -1.4735    4.3300    5.2388 H   0  0  0  0  0  0  0  0  0  0  0  0
   -3.7712    4.9377    4.5608 H   0  0  0  0  0  0  0  0  0  0  0  0
   -3.5210    5.3363    6.2649 H   0  0  0  0  0  0  0  0  0  0  0  0
   -3.5728    8.3807    3.5358 H   0  0  0  0  0  0  0  0  0  0  0  0
   -3.7631    6.7203    2.9522 H   0  0  0  0  0  0  0  0  0  0  0  0
    4.4103    3.6089    1.0226 H   0  0  0  0  0  0  0  0  0  0  0  0
    1.6210    3.0572   -2.2310 H   0  0  0  0  0  0  0  0  0  0  0  0
    1.9856    5.3907   -2.9152 H   0  0  0  0  0  0  0  0  0  0  0  0
    4.8293    5.9142    0.2599 H   0  0  0  0  0  0  0  0  0  0  0  0
    3.5864    6.8272   -1.6845 H   0  0  0  0  0  0  0  0  0  0  0  0
  2  1  2  0  0  0  0
  3  1  1  0  0  0  0
  3 29  1  0  0  0  0
  4  6  1  0  0  0  0
  4  5  1  0  0  0  0
  5  2  1  0  0  0  0
  5 30  1  0  0  0  0
  6  3  1  0  0  0  0
  6 31  1  0  0  0  0
  7  1  1  0  0  0  0
  8 10  1  0  0  0  0
  9  3  1  0  0  0  0
 10 16  1  0  0  0  0
 11  4  2  0  0  0  0
 12  7  2  0  0  0  0
 13  7  1  0  0  0  0
 14  9  2  0  0  0  0
 14 32  1  0  0  0  0
 15  9  1  0  0  0  0
 15 33  1  0  0  0  0
 16 15  2  0  0  0  0
 16 34  1  0  0  0  0
 17 14  1  0  0  0  0
 17 10  2  0  0  0  0
 17 35  1  0  0  0  0
 18 22  1  0  0  0  0
 19  2  1  0  0  0  0
 19 36  1  0  0  0  0
 19 37  1  0  0  0  0
 19 38  1  0  0  0  0
 20  8  1  0  0  0  0
 20 39  1  0  0  0  0
 20 40  1  0  0  0  0
 21  8  1  0  0  0  0
 21 41  1  0  0  0  0
 21 42  1  0  0  0  0
 22 21  1  0  0  0  0
 22 43  1  0  0  0  0
 22 44  1  0  0  0  0
 23 20  1  0  0  0  0
 23 18  1  0  0  0  0
 23 45  1  0  0  0  0
 23 46  1  0  0  0  0
 24 13  2  0  0  0  0
 24 47  1  0  0  0  0
 25 13  1  0  0  0  0
 25 48  1  0  0  0  0
 26 25  2  0  0  0  0
 26 49  1  0  0  0  0
 27 24  1  0  0  0  0
 27 28  2  0  0  0  0
 27 50  1  0  0  0  0
 28 26  1  0  0  0  0
 28 51  1  0  0  0  0
M  END
>  <Mol_ID>
8757

>  <Formula>
C22H23N3O3

>  <MolWeight>
377.43632

>  <Cat>
P2926

>  <Name>
WAY-619359

>  <Synonyms>
N/A

>  <Target>
JAMM

>  <Form>
free base

>  <CAS>
736168-04-0

>  <URL>
N/A

$$$$
