WAY-326359
 OpenBabel08302521433D

 51 55  0  0  0  0  0  0  0  0999 V2000
    1.7326   -0.6427   -0.7586 N   0  0  0  0  0  0  0  0  0  0  0  0
    5.6410   -4.0981   -2.7398 S   0  0  0  0  0  0  0  0  0  0  0  0
    0.9987    0.4808   -0.4748 C   0  0  0  0  0  0  0  0  0  0  0  0
    2.9411   -0.4774   -0.1065 C   0  0  0  0  0  0  0  0  0  0  0  0
    1.3177   -1.7107   -1.5083 N   0  0  0  0  0  0  0  0  0  0  0  0
    1.6837    1.2758    0.3160 N   0  0  0  0  0  0  0  0  0  0  0  0
    2.8973    0.6667    0.5616 N   0  0  0  0  0  0  0  0  0  0  0  0
    5.3209   -3.2429   -1.1894 C   0  0  0  0  0  0  0  0  0  0  0  0
   -0.3281    0.6103   -1.0313 C   0  0  0  0  0  0  0  0  0  0  0  0
    4.6982   -5.5109   -2.6024 N   0  0  0  0  0  0  0  0  0  0  0  0
    0.1184   -1.6230   -2.0144 C   0  0  0  0  0  0  0  0  0  0  0  0
    4.0372   -1.4482   -0.1067 C   0  0  0  0  0  0  0  0  0  0  0  0
   -0.8048   -0.4487   -1.8263 C   0  0  0  0  0  0  0  0  0  0  0  0
    4.3163   -2.2553   -1.2198 C   0  0  0  0  0  0  0  0  0  0  0  0
    5.0801   -3.3021   -3.8126 O   0  0  0  0  0  0  0  0  0  0  0  0
    7.0408   -4.4655   -2.7812 O   0  0  0  0  0  0  0  0  0  0  0  0
    6.0746   -3.4333   -0.0170 C   0  0  0  0  0  0  0  0  0  0  0  0
    4.8382   -1.5907    1.0274 C   0  0  0  0  0  0  0  0  0  0  0  0
    5.8317   -2.5720    1.0739 C   0  0  0  0  0  0  0  0  0  0  0  0
    3.2978   -6.6581   -4.8788 O   0  0  0  0  0  0  0  0  0  0  0  0
    3.2198   -5.3530   -2.8080 C   0  0  0  0  0  0  0  0  0  0  0  0
    5.1986   -6.7165   -3.3358 C   0  0  0  0  0  0  0  0  0  0  0  0
   -1.1223    1.7383   -0.8027 C   0  0  0  0  0  0  0  0  0  0  0  0
   -0.3108   -2.8219   -2.8344 C   0  0  0  0  0  0  0  0  0  0  0  0
   -2.0835   -0.3617   -2.3873 C   0  0  0  0  0  0  0  0  0  0  0  0
    4.7280   -6.7446   -4.7934 C   0  0  0  0  0  0  0  0  0  0  0  0
    2.8416   -5.4296   -4.2957 C   0  0  0  0  0  0  0  0  0  0  0  0
    7.1079   -4.5007    0.2123 C   0  0  0  0  0  0  0  0  0  0  0  0
   -2.3933    1.8166   -1.3657 C   0  0  0  0  0  0  0  0  0  0  0  0
   -2.8737    0.7708   -2.1567 C   0  0  0  0  0  0  0  0  0  0  0  0
    3.7433   -2.1127   -2.1342 H   0  0  0  0  0  0  0  0  0  0  0  0
    4.6805   -0.9495    1.8942 H   0  0  0  0  0  0  0  0  0  0  0  0
    6.4223   -2.6673    1.9851 H   0  0  0  0  0  0  0  0  0  0  0  0
    2.7319   -6.1747   -2.2694 H   0  0  0  0  0  0  0  0  0  0  0  0
    2.8523   -4.4236   -2.3672 H   0  0  0  0  0  0  0  0  0  0  0  0
    4.8001   -7.5932   -2.8096 H   0  0  0  0  0  0  0  0  0  0  0  0
    6.2881   -6.7912   -3.2808 H   0  0  0  0  0  0  0  0  0  0  0  0
   -0.7519    2.5572   -0.1877 H   0  0  0  0  0  0  0  0  0  0  0  0
    0.4129   -2.9683   -3.6431 H   0  0  0  0  0  0  0  0  0  0  0  0
   -0.2919   -3.7086   -2.1922 H   0  0  0  0  0  0  0  0  0  0  0  0
   -1.3005   -2.7418   -3.2756 H   0  0  0  0  0  0  0  0  0  0  0  0
   -2.5026   -1.1451   -3.0076 H   0  0  0  0  0  0  0  0  0  0  0  0
    5.1753   -5.9374   -5.3836 H   0  0  0  0  0  0  0  0  0  0  0  0
    5.0211   -7.6944   -5.2537 H   0  0  0  0  0  0  0  0  0  0  0  0
    1.7522   -5.4017   -4.4019 H   0  0  0  0  0  0  0  0  0  0  0  0
    3.2419   -4.5935   -4.8776 H   0  0  0  0  0  0  0  0  0  0  0  0
    8.0645   -4.0437    0.4877 H   0  0  0  0  0  0  0  0  0  0  0  0
    6.7813   -5.1447    1.0373 H   0  0  0  0  0  0  0  0  0  0  0  0
    7.2810   -5.1604   -0.6339 H   0  0  0  0  0  0  0  0  0  0  0  0
   -3.0135    2.6930   -1.1910 H   0  0  0  0  0  0  0  0  0  0  0  0
   -3.8667    0.8372   -2.5942 H   0  0  0  0  0  0  0  0  0  0  0  0
  2  8  1  0  0  0  0
  3  1  1  0  0  0  0
  4  1  1  0  0  0  0
  5  1  1  0  0  0  0
  6  3  2  0  0  0  0
  7  4  2  0  0  0  0
  7  6  1  0  0  0  0
  8 14  2  0  0  0  0
  8 17  1  0  0  0  0
  9  3  1  0  0  0  0
 10  2  1  0  0  0  0
 11  5  2  0  0  0  0
 12  4  1  0  0  0  0
 13 11  1  0  0  0  0
 13  9  2  0  0  0  0
 14 12  1  0  0  0  0
 14 31  1  0  0  0  0
 15  2  2  0  0  0  0
 16  2  2  0  0  0  0
 17 19  2  0  0  0  0
 18 12  2  0  0  0  0
 18 32  1  0  0  0  0
 19 18  1  0  0  0  0
 19 33  1  0  0  0  0
 20 26  1  0  0  0  0
 21 10  1  0  0  0  0
 21 34  1  0  0  0  0
 21 35  1  0  0  0  0
 22 10  1  0  0  0  0
 22 36  1  0  0  0  0
 22 37  1  0  0  0  0
 23  9  1  0  0  0  0
 23 38  1  0  0  0  0
 24 11  1  0  0  0  0
 24 39  1  0  0  0  0
 24 40  1  0  0  0  0
 24 41  1  0  0  0  0
 25 13  1  0  0  0  0
 25 42  1  0  0  0  0
 26 22  1  0  0  0  0
 26 43  1  0  0  0  0
 26 44  1  0  0  0  0
 27 21  1  0  0  0  0
 27 20  1  0  0  0  0
 27 45  1  0  0  0  0
 27 46  1  0  0  0  0
 28 17  1  0  0  0  0
 28 47  1  0  0  0  0
 28 48  1  0  0  0  0
 28 49  1  0  0  0  0
 29 23  2  0  0  0  0
 29 30  1  0  0  0  0
 29 50  1  0  0  0  0
 30 25  2  0  0  0  0
 30 51  1  0  0  0  0
M  END
>  <Mol_ID>
8913

>  <Formula>
C21H21N5O3S

>  <MolWeight>
423.48814

>  <Cat>
P2471

>  <Name>
WAY-326359

>  <Synonyms>
N/A

>  <Target>
APE1

>  <Form>
free base

>  <CAS>
870757-46-3

>  <URL>
N/A

$$$$
