WAY-621748
 OpenBabel08302521443D

 26 28  0  0  0  0  0  0  0  0999 V2000
   -1.0023   -0.3550   -0.1502 C   0  0  3  0  0  0  0  0  0  0  0  0
   -2.9190    1.0181   -0.3957 N   0  0  0  0  0  0  0  0  0  0  0  0
   -1.9353    0.4160   -1.1198 C   0  0  0  0  0  0  0  0  0  0  0  0
   -2.7346    0.8134    0.9274 C   0  0  0  0  0  0  0  0  0  0  0  0
    0.4064    0.2175   -0.1124 C   0  0  0  0  0  0  0  0  0  0  0  0
   -1.6857   -0.0557    1.0978 N   0  0  0  0  0  0  0  0  0  0  0  0
    1.5515   -0.5961   -0.0386 C   0  0  0  0  0  0  0  0  0  0  0  0
    1.5244   -2.3806   -0.0277 S   0  0  0  0  0  0  0  0  0  0  0  0
    0.5875    1.6208   -0.0923 C   0  0  0  0  0  0  0  0  0  0  0  0
   -1.8162    0.5054   -2.3330 O   0  0  0  0  0  0  0  0  0  0  0  0
   -3.3575    1.3396    1.8307 O   0  0  0  0  0  0  0  0  0  0  0  0
   -1.1173   -1.8417   -0.5040 C   0  0  0  0  0  0  0  0  0  0  0  0
    2.8282   -0.0061    0.0217 C   0  0  0  0  0  0  0  0  0  0  0  0
    1.8573    2.1809   -0.0279 C   0  0  0  0  0  0  0  0  0  0  0  0
   -0.2145   -2.7082    0.3491 C   0  0  0  0  0  0  0  0  0  0  0  0
    2.9824    1.3798    0.0268 C   0  0  0  0  0  0  0  0  0  0  0  0
    1.9901    3.5127   -0.0132 F   0  0  0  0  0  0  0  0  0  0  0  0
   -3.6077    1.6429   -0.7783 H   0  0  0  0  0  0  0  0  0  0  0  0
   -1.3038   -0.2103    2.0217 H   0  0  0  0  0  0  0  0  0  0  0  0
   -0.2565    2.3057   -0.1232 H   0  0  0  0  0  0  0  0  0  0  0  0
   -0.8905   -2.0040   -1.5674 H   0  0  0  0  0  0  0  0  0  0  0  0
   -2.1543   -2.1791   -0.3684 H   0  0  0  0  0  0  0  0  0  0  0  0
    3.7205   -0.6288    0.0712 H   0  0  0  0  0  0  0  0  0  0  0  0
   -0.4073   -3.7654    0.1399 H   0  0  0  0  0  0  0  0  0  0  0  0
   -0.3934   -2.5492    1.4175 H   0  0  0  0  0  0  0  0  0  0  0  0
    3.9675    1.8309    0.0791 H   0  0  0  0  0  0  0  0  0  0  0  0
  2  3  1  0  0  0  0
  2 18  1  0  0  0  0
  3  1  1  0  0  0  0
  4  6  1  0  0  0  0
  4  2  1  0  0  0  0
  5  1  1  0  0  0  0
  6  1  1  0  0  0  0
  6 19  1  0  0  0  0
  7  5  2  0  0  0  0
  7  8  1  0  0  0  0
  8 15  1  0  0  0  0
  9  5  1  0  0  0  0
  9 20  1  0  0  0  0
 10  3  2  0  0  0  0
 11  4  2  0  0  0  0
 12  1  1  0  0  0  0
 12 21  1  0  0  0  0
 12 22  1  0  0  0  0
 13  7  1  0  0  0  0
 13 23  1  0  0  0  0
 14  9  2  0  0  0  0
 15 12  1  0  0  0  0
 15 24  1  0  0  0  0
 15 25  1  0  0  0  0
 16 14  1  0  0  0  0
 16 13  2  0  0  0  0
 16 26  1  0  0  0  0
 17 14  1  0  0  0  0
M  END
>  <Mol_ID>
9056

>  <Formula>
C11H9FN2O2S

>  <MolWeight>
252.2647632

>  <Cat>
P2977

>  <Name>
WAY-621748

>  <Synonyms>
N/A

>  <Target>
Others

>  <Form>
free base

>  <CAS>
69627-83-4

>  <URL>
N/A

$$$$
