WAY-325454
 OpenBabel08302521433D

 40 42  0  0  0  0  0  0  0  0999 V2000
   -0.0990    1.1162   -0.2429 C   0  0  0  0  0  0  0  0  0  0  0  0
   -0.6769    2.4679   -0.2226 C   0  0  0  0  0  0  0  0  0  0  0  0
   -0.9787    0.0516   -0.1694 O   0  0  0  0  0  0  0  0  0  0  0  0
    0.1173    3.5640   -0.6383 N   0  0  0  0  0  0  0  0  0  0  0  0
    1.1877    0.5974   -0.2359 C   0  0  0  0  0  0  0  0  0  0  0  0
   -0.2523   -1.1041   -0.1451 C   0  0  0  0  0  0  0  0  0  0  0  0
    1.0884   -0.8141   -0.2292 C   0  0  0  0  0  0  0  0  0  0  0  0
   -1.8254    2.6370    0.1998 O   0  0  0  0  0  0  0  0  0  0  0  0
   -1.3226   -2.9751   -1.1418 O   0  0  0  0  0  0  0  0  0  0  0  0
   -0.3830    4.9008   -0.5619 C   0  0  0  0  0  0  0  0  0  0  0  0
   -2.0347   -4.1483   -1.0468 C   0  0  0  0  0  0  0  0  0  0  0  0
   -2.2670   -4.8645    0.1332 C   0  0  0  0  0  0  0  0  0  0  0  0
   -0.9857   -2.3730    0.1036 C   0  0  0  0  0  0  0  0  0  0  0  0
    1.4028    3.4335   -1.3172 C   0  0  0  0  0  0  0  0  0  0  0  0
    0.4304    5.9163   -0.0364 C   0  0  0  0  0  0  0  0  0  0  0  0
   -1.6383    5.2371   -1.0777 C   0  0  0  0  0  0  0  0  0  0  0  0
   -2.5526   -4.6405   -2.2472 C   0  0  0  0  0  0  0  0  0  0  0  0
   -3.0254   -6.0392    0.1144 C   0  0  0  0  0  0  0  0  0  0  0  0
   -3.5522   -6.5118   -1.0837 C   0  0  0  0  0  0  0  0  0  0  0  0
   -0.0101    7.2412   -0.0161 C   0  0  0  0  0  0  0  0  0  0  0  0
   -2.0635    6.5690   -1.0883 C   0  0  0  0  0  0  0  0  0  0  0  0
   -3.3108   -5.8155   -2.2662 C   0  0  0  0  0  0  0  0  0  0  0  0
   -1.2530    7.5690   -0.5524 C   0  0  0  0  0  0  0  0  0  0  0  0
    2.1129    1.1478   -0.2029 H   0  0  0  0  0  0  0  0  0  0  0  0
    1.8978   -1.5309   -0.2049 H   0  0  0  0  0  0  0  0  0  0  0  0
   -1.8767   -4.5414    1.0911 H   0  0  0  0  0  0  0  0  0  0  0  0
   -0.3157   -3.0373    0.6638 H   0  0  0  0  0  0  0  0  0  0  0  0
   -1.8877   -2.1686    0.6915 H   0  0  0  0  0  0  0  0  0  0  0  0
    2.1819    3.2296   -0.5792 H   0  0  0  0  0  0  0  0  0  0  0  0
    1.3448    2.6299   -2.0566 H   0  0  0  0  0  0  0  0  0  0  0  0
    1.6686    4.3486   -1.8579 H   0  0  0  0  0  0  0  0  0  0  0  0
    1.3998    5.6791    0.3938 H   0  0  0  0  0  0  0  0  0  0  0  0
   -2.2787    4.4764   -1.5172 H   0  0  0  0  0  0  0  0  0  0  0  0
   -2.3782   -4.1006   -3.1754 H   0  0  0  0  0  0  0  0  0  0  0  0
   -3.2041   -6.5817    1.0395 H   0  0  0  0  0  0  0  0  0  0  0  0
   -4.1495   -7.4191   -1.0937 H   0  0  0  0  0  0  0  0  0  0  0  0
    0.6164    8.0162    0.4174 H   0  0  0  0  0  0  0  0  0  0  0  0
   -3.0271    6.8247   -1.5214 H   0  0  0  0  0  0  0  0  0  0  0  0
   -3.7224   -6.1831   -3.2034 H   0  0  0  0  0  0  0  0  0  0  0  0
   -1.5919    8.6016   -0.5516 H   0  0  0  0  0  0  0  0  0  0  0  0
  2  1  1  0  0  0  0
  3  1  1  0  0  0  0
  4  2  1  0  0  0  0
  5  1  2  0  0  0  0
  5 24  1  0  0  0  0
  6  3  1  0  0  0  0
  6  7  2  0  0  0  0
  7  5  1  0  0  0  0
  7 25  1  0  0  0  0
  8  2  2  0  0  0  0
  9 13  1  0  0  0  0
 10  4  1  0  0  0  0
 11  9  1  0  0  0  0
 12 11  2  0  0  0  0
 12 26  1  0  0  0  0
 13  6  1  0  0  0  0
 13 27  1  0  0  0  0
 13 28  1  0  0  0  0
 14  4  1  0  0  0  0
 14 29  1  0  0  0  0
 14 30  1  0  0  0  0
 14 31  1  0  0  0  0
 15 10  2  0  0  0  0
 15 32  1  0  0  0  0
 16 10  1  0  0  0  0
 16 33  1  0  0  0  0
 17 11  1  0  0  0  0
 17 34  1  0  0  0  0
 18 12  1  0  0  0  0
 18 19  2  0  0  0  0
 18 35  1  0  0  0  0
 19 22  1  0  0  0  0
 19 36  1  0  0  0  0
 20 15  1  0  0  0  0
 20 23  2  0  0  0  0
 20 37  1  0  0  0  0
 21 16  2  0  0  0  0
 21 38  1  0  0  0  0
 22 17  2  0  0  0  0
 22 39  1  0  0  0  0
 23 21  1  0  0  0  0
 23 40  1  0  0  0  0
M  END
>  <Mol_ID>
8700

>  <Formula>
C19H16ClNO3

>  <MolWeight>
341.78824

>  <Cat>
P2399

>  <Name>
WAY-325454

>  <Synonyms>
N/A

>  <Target>
11¦Â-HSD1

>  <Form>
free base

>  <CAS>
438474-60-3

>  <URL>
N/A

$$$$
