WAY-621571
 OpenBabel08302521443D

 30 32  0  0  0  0  0  0  0  0999 V2000
    0.2892   -1.3072   -0.5014 C   0  0  0  0  0  0  0  0  0  0  0  0
   -1.4270   -5.3983   -0.9317 C   0  0  0  0  0  0  0  0  0  0  0  0
   -2.7308   -7.2726   -1.0973 N   0  0  0  0  0  0  0  0  0  0  0  0
    0.8478   -2.5642    0.0636 C   0  0  0  0  0  0  0  0  0  0  0  0
   -1.1964   -6.1871    0.1829 C   0  0  0  0  0  0  0  0  0  0  0  0
    0.1069   -3.8420    0.0312 C   0  0  0  0  0  0  0  0  0  0  0  0
   -1.9867   -7.2868    0.0284 N   0  0  0  0  0  0  0  0  0  0  0  0
    1.1611   -0.3157   -0.9727 C   0  0  0  0  0  0  0  0  0  0  0  0
   -0.7322   -4.1844   -1.0339 C   0  0  0  0  0  0  0  0  0  0  0  0
   -2.3861   -6.1187   -1.6899 C   0  0  0  0  0  0  0  0  0  0  0  0
   -0.3646   -5.9346    1.2135 N   0  0  0  0  0  0  0  0  0  0  0  0
    0.6633    0.8739   -1.4999 C   0  0  0  0  0  0  0  0  0  0  0  0
   -0.7138    1.0866   -1.5600 C   0  0  0  0  0  0  0  0  0  0  0  0
   -1.0938   -1.0734   -0.5418 C   0  0  0  0  0  0  0  0  0  0  0  0
    0.2727   -4.7414    1.0846 C   0  0  0  0  0  0  0  0  0  0  0  0
   -1.5917    0.1141   -1.0842 C   0  0  0  0  0  0  0  0  0  0  0  0
    1.9749   -2.5406    0.5563 O   0  0  0  0  0  0  0  0  0  0  0  0
    2.5237   -0.4513   -0.9539 O   0  0  0  0  0  0  0  0  0  0  0  0
   -3.0082   -5.7169   -2.9758 C   0  0  0  0  0  0  0  0  0  0  0  0
   -2.0621   -8.0750    0.6613 H   0  0  0  0  0  0  0  0  0  0  0  0
   -0.8580   -3.5477   -1.9026 H   0  0  0  0  0  0  0  0  0  0  0  0
    1.3503    1.6370   -1.8561 H   0  0  0  0  0  0  0  0  0  0  0  0
   -1.1006    2.0172   -1.9687 H   0  0  0  0  0  0  0  0  0  0  0  0
   -1.8041   -1.7949   -0.1468 H   0  0  0  0  0  0  0  0  0  0  0  0
    0.9501   -4.5099    1.9051 H   0  0  0  0  0  0  0  0  0  0  0  0
   -2.6651    0.2855   -1.1260 H   0  0  0  0  0  0  0  0  0  0  0  0
    2.7412   -1.2386   -0.4066 H   0  0  0  0  0  0  0  0  0  0  0  0
   -3.5598   -4.7782   -2.8532 H   0  0  0  0  0  0  0  0  0  0  0  0
   -2.2398   -5.5657   -3.7406 H   0  0  0  0  0  0  0  0  0  0  0  0
   -3.7078   -6.4745   -3.3413 H   0  0  0  0  0  0  0  0  0  0  0  0
  2  9  1  0  0  0  0
  2  5  2  0  0  0  0
  3 10  2  0  0  0  0
  3  7  1  0  0  0  0
  4  1  1  0  0  0  0
  5 11  1  0  0  0  0
  6  4  1  0  0  0  0
  7  5  1  0  0  0  0
  7 20  1  0  0  0  0
  8  1  2  0  0  0  0
  9  6  2  0  0  0  0
  9 21  1  0  0  0  0
 10  2  1  0  0  0  0
 11 15  2  0  0  0  0
 12  8  1  0  0  0  0
 12 13  2  0  0  0  0
 12 22  1  0  0  0  0
 13 16  1  0  0  0  0
 13 23  1  0  0  0  0
 14  1  1  0  0  0  0
 14 24  1  0  0  0  0
 15  6  1  0  0  0  0
 15 25  1  0  0  0  0
 16 14  2  0  0  0  0
 16 26  1  0  0  0  0
 17  4  2  0  0  0  0
 18  8  1  0  0  0  0
 18 27  1  0  0  0  0
 19 10  1  0  0  0  0
 19 28  1  0  0  0  0
 19 29  1  0  0  0  0
 19 30  1  0  0  0  0
M  END
>  <Mol_ID>
9051

>  <Formula>
C14H9Cl2N3O2

>  <MolWeight>
322.14616

>  <Cat>
P2972

>  <Name>
WAY-621571

>  <Synonyms>
N/A

>  <Target>
beta2 integrin

>  <Form>
free base

>  <CAS>
736949-72-7

>  <URL>
N/A

$$$$
