WAY-327065
 OpenBabel08302521443D

 50 54  0  0  0  0  0  0  0  0999 V2000
   -0.0150    0.8839    0.5405 C   0  0  3  0  0  0  0  0  0  0  0  0
    0.0511   -0.6093   -0.0476 C   0  0  3  0  0  0  0  0  0  0  0  0
    1.9876    0.9433   -0.5623 N   0  0  0  0  0  0  0  0  0  0  0  0
    1.3761    1.3991    0.5692 C   0  0  0  0  0  0  0  0  0  0  0  0
   -1.0428    1.5213   -0.4215 C   0  0  3  0  0  0  0  0  0  0  0  0
   -2.0095    0.3425   -0.4791 C   0  0  3  0  0  0  0  0  0  0  0  0
   -1.3465   -0.5334    0.4834 O   0  0  0  0  0  0  0  0  0  0  0  0
    1.1503   -0.0665   -1.1737 C   0  0  0  0  0  0  0  0  0  0  0  0
   -1.6792    2.7867    0.0765 C   0  0  0  0  0  0  0  0  0  0  0  0
   -0.6945   -1.3015   -1.2407 C   0  0  0  0  0  0  0  0  0  0  0  0
    2.8008    1.8994   -1.2968 C   0  0  0  0  0  0  0  0  0  0  0  0
   -1.8268   -0.6494   -1.5600 C   0  0  0  0  0  0  0  0  0  0  0  0
    4.2208    1.4757   -1.5225 C   0  0  0  0  0  0  0  0  0  0  0  0
   -2.2295    3.6551   -0.8196 N   0  0  0  0  0  0  0  0  0  0  0  0
   -1.1239    4.1087   -3.0032 C   0  0  0  0  0  0  0  0  0  0  0  0
    1.8574    2.1430    1.4052 O   0  0  0  0  0  0  0  0  0  0  0  0
   -2.3439    3.5954   -2.2718 C   0  0  0  0  0  0  0  0  0  0  0  0
    4.6317    1.0186   -2.7792 C   0  0  0  0  0  0  0  0  0  0  0  0
   -1.7273    3.0731    1.2710 O   0  0  0  0  0  0  0  0  0  0  0  0
   -0.4636    3.2938   -3.9350 C   0  0  0  0  0  0  0  0  0  0  0  0
    5.1702    1.6011   -0.4958 C   0  0  0  0  0  0  0  0  0  0  0  0
   -0.6535    5.4168   -2.8094 C   0  0  0  0  0  0  0  0  0  0  0  0
    5.9680    0.6911   -3.0065 C   0  0  0  0  0  0  0  0  0  0  0  0
    0.6700    3.7517   -4.6128 C   0  0  0  0  0  0  0  0  0  0  0  0
    6.5073    1.2762   -0.7264 C   0  0  0  0  0  0  0  0  0  0  0  0
    0.4786    5.8762   -3.4918 C   0  0  0  0  0  0  0  0  0  0  0  0
    1.1476    5.0398   -4.3814 C   0  0  0  0  0  0  0  0  0  0  0  0
    6.9045    0.8186   -1.9813 C   0  0  0  0  0  0  0  0  0  0  0  0
   -0.3399    0.9164    1.5975 H   0  0  0  0  0  0  0  0  0  0  0  0
   -0.6111    1.7586   -1.4021 H   0  0  0  0  0  0  0  0  0  0  0  0
   -3.0399    0.5142   -0.1557 H   0  0  0  0  0  0  0  0  0  0  0  0
    0.7138    0.3762   -2.0826 H   0  0  0  0  0  0  0  0  0  0  0  0
    1.8156   -0.8840   -1.4814 H   0  0  0  0  0  0  0  0  0  0  0  0
   -0.3689   -2.2386   -1.6749 H   0  0  0  0  0  0  0  0  0  0  0  0
    2.2951    2.1413   -2.2387 H   0  0  0  0  0  0  0  0  0  0  0  0
    2.8243    2.8498   -0.7440 H   0  0  0  0  0  0  0  0  0  0  0  0
   -2.5831   -0.9918   -2.2496 H   0  0  0  0  0  0  0  0  0  0  0  0
   -2.5694    4.4879   -0.3583 H   0  0  0  0  0  0  0  0  0  0  0  0
   -2.5696    2.5653   -2.5610 H   0  0  0  0  0  0  0  0  0  0  0  0
   -3.2072    4.2114   -2.5530 H   0  0  0  0  0  0  0  0  0  0  0  0
    3.9155    0.9377   -3.5925 H   0  0  0  0  0  0  0  0  0  0  0  0
   -0.8279    2.2905   -4.1480 H   0  0  0  0  0  0  0  0  0  0  0  0
    4.8711    1.9743    0.4837 H   0  0  0  0  0  0  0  0  0  0  0  0
   -1.1646    6.0938   -2.1287 H   0  0  0  0  0  0  0  0  0  0  0  0
    6.2806    0.3447   -3.9874 H   0  0  0  0  0  0  0  0  0  0  0  0
    1.1794    3.1067   -5.3239 H   0  0  0  0  0  0  0  0  0  0  0  0
    7.2384    1.3873    0.0705 H   0  0  0  0  0  0  0  0  0  0  0  0
    0.8397    6.8898   -3.3277 H   0  0  0  0  0  0  0  0  0  0  0  0
    2.0352    5.3941   -4.9008 H   0  0  0  0  0  0  0  0  0  0  0  0
    7.9456    0.5654   -2.1619 H   0  0  0  0  0  0  0  0  0  0  0  0
  1 29  1  0  0  0  0
  2  1  1  0  0  0  0
  3  4  1  0  0  0  0
  3  8  1  0  0  0  0
  4  1  1  0  0  0  0
  5  1  1  0  0  0  0
  5 30  1  0  0  0  0
  6  5  1  0  0  0  0
  6  7  1  0  0  0  0
  6 31  1  0  0  0  0
  7  2  1  0  0  0  0
  8  2  1  0  0  0  0
  8 32  1  0  0  0  0
  8 33  1  0  0  0  0
  9  5  1  0  0  0  0
 10  2  1  0  0  0  0
 10 12  2  0  0  0  0
 10 34  1  0  0  0  0
 11  3  1  0  0  0  0
 11 35  1  0  0  0  0
 11 36  1  0  0  0  0
 12  6  1  0  0  0  0
 12 37  1  0  0  0  0
 13 11  1  0  0  0  0
 14  9  1  0  0  0  0
 14 38  1  0  0  0  0
 15 17  1  0  0  0  0
 16  4  2  0  0  0  0
 17 14  1  0  0  0  0
 17 39  1  0  0  0  0
 17 40  1  0  0  0  0
 18 13  2  0  0  0  0
 18 41  1  0  0  0  0
 19  9  2  0  0  0  0
 20 15  2  0  0  0  0
 20 42  1  0  0  0  0
 21 13  1  0  0  0  0
 21 43  1  0  0  0  0
 22 15  1  0  0  0  0
 22 44  1  0  0  0  0
 23 18  1  0  0  0  0
 23 45  1  0  0  0  0
 24 20  1  0  0  0  0
 24 46  1  0  0  0  0
 25 21  2  0  0  0  0
 25 47  1  0  0  0  0
 26 22  2  0  0  0  0
 26 48  1  0  0  0  0
 27 26  1  0  0  0  0
 27 24  2  0  0  0  0
 27 49  1  0  0  0  0
 28 25  1  0  0  0  0
 28 23  2  0  0  0  0
 28 50  1  0  0  0  0
M  END
>  <Mol_ID>
8951

>  <Formula>
C23H20Cl2N2O3

>  <MolWeight>
443.3225

>  <Cat>
P2510

>  <Name>
WAY-327065

>  <Synonyms>
N/A

>  <Target>
calcium ion (Ca2+) channels

>  <Form>
free base

>  <CAS>
1024059-96-8

>  <URL>
N/A

$$$$
