WAY-640898
 OpenBabel08302521443D

 48 51  0  0  1  0  0  0  0  0999 V2000
   -0.1087    4.0843   -2.7689 C   0  0  0  0  0  0  0  0  0  0  0  0
    3.6060    2.9687    0.0369 C   0  0  0  0  0  0  0  0  0  0  0  0
    3.6845    1.7492   -0.4614 N   0  0  0  0  0  0  0  0  0  0  0  0
    0.0628    2.8122   -3.2619 O   0  0  0  0  0  0  0  0  0  0  0  0
   -1.1915    4.6879   -3.4041 C   0  0  0  0  0  0  0  0  0  0  0  0
    0.7589    4.5605   -1.7005 C   0  0  0  0  0  0  0  0  0  0  0  0
    4.7621    3.2968    0.7109 N   0  0  0  0  0  0  0  0  0  0  0  0
   -1.7242    3.7152   -4.3045 C   0  0  0  0  0  0  0  0  0  0  0  0
   -0.9163    2.5936   -4.1854 C   0  0  0  0  0  0  0  0  0  0  0  0
    1.7270    3.6782   -1.2689 N   0  0  0  0  0  0  0  0  0  0  0  0
    4.8950    1.2555   -0.0382 C   0  0  0  0  0  0  0  0  0  0  0  0
    5.5844    2.1960    0.7153 C   0  0  0  0  0  0  0  0  0  0  0  0
    2.4103    3.8735    0.0053 C   0  0  1  0  0  0  0  0  0  0  0  0
    0.6255    5.6572   -1.1582 O   0  0  0  0  0  0  0  0  0  0  0  0
   -1.7400    6.0532   -3.1975 C   0  0  0  0  0  0  0  0  0  0  0  0
    1.4446    3.5463    1.1650 C   0  0  0  0  0  0  0  0  0  0  0  0
    2.8341    5.1609    3.0341 S   0  0  0  0  0  0  0  0  0  0  0  0
   -2.8134    3.6714   -5.1977 C   0  0  0  0  0  0  0  0  0  0  0  0
   -1.1114    1.4189   -4.9123 C   0  0  0  0  0  0  0  0  0  0  0  0
    5.4618   -0.0112   -0.2371 C   0  0  0  0  0  0  0  0  0  0  0  0
    6.8235    1.9448    1.3094 C   0  0  0  0  0  0  0  0  0  0  0  0
    2.0336    3.5862    2.5766 C   0  0  0  0  0  0  0  0  0  0  0  0
    1.3906    6.2556    2.9690 C   0  0  0  0  0  0  0  0  0  0  0  0
   -3.0411    2.5018   -5.9342 C   0  0  0  0  0  0  0  0  0  0  0  0
   -2.2003    1.3959   -5.7947 C   0  0  0  0  0  0  0  0  0  0  0  0
    7.3673    0.6696    1.1134 C   0  0  0  0  0  0  0  0  0  0  0  0
    6.7014   -0.2927    0.3511 C   0  0  0  0  0  0  0  0  0  0  0  0
    4.9243    4.1603    1.2124 H   0  0  0  0  0  0  0  0  0  0  0  0
    1.7722    2.7552   -1.6910 H   0  0  0  0  0  0  0  0  0  0  0  0
    2.7289    4.9213    0.0542 H   0  0  0  0  0  0  0  0  0  0  0  0
   -1.7352    6.6065   -4.1427 H   0  0  0  0  0  0  0  0  0  0  0  0
   -2.7738    5.9947   -2.8415 H   0  0  0  0  0  0  0  0  0  0  0  0
   -1.1697    6.6366   -2.4727 H   0  0  0  0  0  0  0  0  0  0  0  0
    0.5787    4.2185    1.1210 H   0  0  0  0  0  0  0  0  0  0  0  0
    1.0303    2.5400    1.0103 H   0  0  0  0  0  0  0  0  0  0  0  0
   -3.4754    4.5252   -5.3103 H   0  0  0  0  0  0  0  0  0  0  0  0
   -0.4561    0.5647   -4.7938 H   0  0  0  0  0  0  0  0  0  0  0  0
    4.9338   -0.7555   -0.8216 H   0  0  0  0  0  0  0  0  0  0  0  0
    7.3392    2.6900    1.9063 H   0  0  0  0  0  0  0  0  0  0  0  0
    1.2472    3.3731    3.3091 H   0  0  0  0  0  0  0  0  0  0  0  0
    2.7780    2.7923    2.6978 H   0  0  0  0  0  0  0  0  0  0  0  0
    1.0635    6.3939    1.9359 H   0  0  0  0  0  0  0  0  0  0  0  0
    0.5710    5.8491    3.5675 H   0  0  0  0  0  0  0  0  0  0  0  0
    1.6647    7.2327    3.3753 H   0  0  0  0  0  0  0  0  0  0  0  0
   -3.8847    2.4572   -6.6208 H   0  0  0  0  0  0  0  0  0  0  0  0
   -2.3978    0.4994   -6.3796 H   0  0  0  0  0  0  0  0  0  0  0  0
    8.3255    0.4224    1.5660 H   0  0  0  0  0  0  0  0  0  0  0  0
    7.1432   -1.2771    0.2170 H   0  0  0  0  0  0  0  0  0  0  0  0
  3  2  2  0  0  0  0
  4  1  1  0  0  0  0
  5  1  2  0  0  0  0
  6  1  1  0  0  0  0
  7  2  1  0  0  0  0
  7 28  1  0  0  0  0
  8  5  1  0  0  0  0
  8  9  2  0  0  0  0
  9  4  1  0  0  0  0
 10  6  1  0  0  0  0
 10 29  1  0  0  0  0
 11  3  1  0  0  0  0
 12  7  1  0  0  0  0
 12 11  2  0  0  0  0
 13 16  1  0  0  0  0
 13 30  1  1  0  0  0
 13 10  1  0  0  0  0
 13  2  1  0  0  0  0
 14  6  2  0  0  0  0
 15  5  1  0  0  0  0
 15 31  1  0  0  0  0
 15 32  1  0  0  0  0
 15 33  1  0  0  0  0
 16 34  1  0  0  0  0
 16 35  1  0  0  0  0
 17 22  1  0  0  0  0
 18  8  1  0  0  0  0
 18 36  1  0  0  0  0
 19  9  1  0  0  0  0
 19 37  1  0  0  0  0
 20 11  1  0  0  0  0
 20 38  1  0  0  0  0
 21 12  1  0  0  0  0
 21 39  1  0  0  0  0
 22 16  1  0  0  0  0
 22 40  1  0  0  0  0
 22 41  1  0  0  0  0
 23 17  1  0  0  0  0
 23 42  1  0  0  0  0
 23 43  1  0  0  0  0
 23 44  1  0  0  0  0
 24 18  2  0  0  0  0
 24 25  1  0  0  0  0
 24 45  1  0  0  0  0
 25 19  2  0  0  0  0
 25 46  1  0  0  0  0
 26 21  2  0  0  0  0
 26 27  1  0  0  0  0
 26 47  1  0  0  0  0
 27 20  2  0  0  0  0
 27 48  1  0  0  0  0
M  END
>  <Mol_ID>
9110

>  <Formula>
C21H21N3O2S

>  <MolWeight>
379.47534

>  <Cat>
P3118

>  <Name>
WAY-640898

>  <Synonyms>
N/A

>  <Target>
FPR1 receptor

>  <Form>
free base

>  <CAS>
851453-95-7

>  <URL>
N/A

$$$$
