WAY-345115
 OpenBabel08302521403D

 27 28  0  0  0  0  0  0  0  0999 V2000
    0.9024   -0.5963    0.9835 N   0  0  0  0  0  0  0  0  0  0  0  0
    1.0372    0.7765    0.7466 C   0  0  0  0  0  0  0  0  0  0  0  0
    0.1782   -1.1741    0.0433 C   0  0  0  0  0  0  0  0  0  0  0  0
   -0.4854   -0.0469   -1.1006 S   0  0  0  0  0  0  0  0  0  0  0  0
    1.8777    1.6340    1.5862 C   0  0  0  0  0  0  0  0  0  0  0  0
    0.3315    1.2384   -0.3419 C   0  0  0  0  0  0  0  0  0  0  0  0
    0.0144   -2.5289   -0.0712 N   0  0  0  0  0  0  0  0  0  0  0  0
    2.2772    2.7406    1.2390 O   0  0  0  0  0  0  0  0  0  0  0  0
    2.1584    1.0666    2.8302 N   0  0  0  0  0  0  0  0  0  0  0  0
   -0.4971   -5.3491   -0.0225 O   0  0  0  0  0  0  0  0  0  0  0  0
    3.1511    1.6299    3.6657 N   0  0  0  0  0  0  0  0  0  0  0  0
   -1.2158   -3.0887   -0.6583 C   0  0  0  0  0  0  0  0  0  0  0  0
    0.5919   -3.3826    0.9820 C   0  0  0  0  0  0  0  0  0  0  0  0
    0.7468   -4.8247    0.4695 C   0  0  0  0  0  0  0  0  0  0  0  0
   -0.9749   -4.5393   -1.1048 C   0  0  0  0  0  0  0  0  0  0  0  0
    0.2701    2.2564   -0.7143 H   0  0  0  0  0  0  0  0  0  0  0  0
    1.8190    0.1187    2.9891 H   0  0  0  0  0  0  0  0  0  0  0  0
    3.2277    2.6269    3.4278 H   0  0  0  0  0  0  0  0  0  0  0  0
    2.8308    1.5973    4.6357 H   0  0  0  0  0  0  0  0  0  0  0  0
   -2.0090   -3.0661    0.0992 H   0  0  0  0  0  0  0  0  0  0  0  0
   -1.5600   -2.5270   -1.5320 H   0  0  0  0  0  0  0  0  0  0  0  0
   -0.0739   -3.3734    1.8538 H   0  0  0  0  0  0  0  0  0  0  0  0
    1.5794   -3.0244    1.2960 H   0  0  0  0  0  0  0  0  0  0  0  0
    1.4958   -4.8794   -0.3301 H   0  0  0  0  0  0  0  0  0  0  0  0
    1.0815   -5.4769    1.2828 H   0  0  0  0  0  0  0  0  0  0  0  0
   -1.9118   -4.9777   -1.4628 H   0  0  0  0  0  0  0  0  0  0  0  0
   -0.2523   -4.5805   -1.9308 H   0  0  0  0  0  0  0  0  0  0  0  0
  2  1  1  0  0  0  0
  3  1  2  0  0  0  0
  4  3  1  0  0  0  0
  5  2  1  0  0  0  0
  6  2  2  0  0  0  0
  6  4  1  0  0  0  0
  6 16  1  0  0  0  0
  7  3  1  0  0  0  0
  8  5  2  0  0  0  0
  9  5  1  0  0  0  0
  9 17  1  0  0  0  0
 10 14  1  0  0  0  0
 10 15  1  0  0  0  0
 11  9  1  0  0  0  0
 11 18  1  0  0  0  0
 11 19  1  0  0  0  0
 12  7  1  0  0  0  0
 12 20  1  0  0  0  0
 12 21  1  0  0  0  0
 13  7  1  0  0  0  0
 13 22  1  0  0  0  0
 13 23  1  0  0  0  0
 14 13  1  0  0  0  0
 14 24  1  0  0  0  0
 14 25  1  0  0  0  0
 15 12  1  0  0  0  0
 15 26  1  0  0  0  0
 15 27  1  0  0  0  0
M  END
>  <Mol_ID>
8268

>  <Formula>
C8H12N4O2S

>  <MolWeight>
228.27148

>  <Cat>
P2744

>  <Name>
WAY-345115

>  <Synonyms>
N/A

>  <Target>
NK-3 receptor

>  <Form>
free base

>  <CAS>
743444-82-8

>  <URL>
N/A

$$$$
