WAY-607113
 OpenBabel08302521433D

 40 43  0  0  0  0  0  0  0  0999 V2000
   -0.2757   -0.6569    0.0898 N   0  0  0  0  0  0  0  0  0  0  0  0
    0.9217   -1.4280    0.1324 C   0  0  0  0  0  0  0  0  0  0  0  0
   -0.2400    0.7352   -0.0056 C   0  0  0  0  0  0  0  0  0  0  0  0
   -1.5589   -1.1245    0.0766 N   0  0  0  0  0  0  0  0  0  0  0  0
    2.0990   -0.7711    0.0342 C   0  0  0  0  0  0  0  0  0  0  0  0
   -1.5493    1.1467   -0.0290 C   0  0  0  0  0  0  0  0  0  0  0  0
   -2.3336   -0.0296    0.0261 C   0  0  0  0  0  0  0  0  0  0  0  0
    0.9278    1.4379   -0.0609 N   0  0  0  0  0  0  0  0  0  0  0  0
    2.0110    0.7214   -0.0435 C   0  0  0  0  0  0  0  0  0  0  0  0
   -3.7952   -0.1188    0.0110 C   0  0  0  0  0  0  0  0  0  0  0  0
    3.4090   -1.4307   -0.0019 C   0  0  0  0  0  0  0  0  0  0  0  0
    0.7831   -2.8107    0.2518 N   0  0  0  0  0  0  0  0  0  0  0  0
   -4.4358   -1.2419   -0.5297 C   0  0  0  0  0  0  0  0  0  0  0  0
   -4.5836    0.9170    0.5278 C   0  0  0  0  0  0  0  0  0  0  0  0
   -6.6117   -0.2978   -0.0315 C   0  0  0  0  0  0  0  0  0  0  0  0
   -5.8341   -1.3305   -0.5546 C   0  0  0  0  0  0  0  0  0  0  0  0
   -5.9792    0.8247    0.5056 C   0  0  0  0  0  0  0  0  0  0  0  0
   -7.9775   -0.2647    0.0204 O   0  0  0  0  0  0  0  0  0  0  0  0
    3.9830   -1.7839   -1.2306 C   0  0  0  0  0  0  0  0  0  0  0  0
    4.0905   -1.7228    1.1849 C   0  0  0  0  0  0  0  0  0  0  0  0
   -8.6667   -1.3881   -0.5133 C   0  0  0  0  0  0  0  0  0  0  0  0
    5.3304   -2.3638    1.1424 C   0  0  0  0  0  0  0  0  0  0  0  0
    5.2227   -2.4253   -1.2694 C   0  0  0  0  0  0  0  0  0  0  0  0
    5.8948   -2.7164   -0.0831 C   0  0  0  0  0  0  0  0  0  0  0  0
   -1.8843    2.1710   -0.1003 H   0  0  0  0  0  0  0  0  0  0  0  0
    2.9801    1.2485   -0.0841 H   0  0  0  0  0  0  0  0  0  0  0  0
   -0.1386   -3.1315   -0.0513 H   0  0  0  0  0  0  0  0  0  0  0  0
    1.5619   -3.3511   -0.1109 H   0  0  0  0  0  0  0  0  0  0  0  0
   -3.8463   -2.0579   -0.9425 H   0  0  0  0  0  0  0  0  0  0  0  0
   -4.1285    1.8004    0.9682 H   0  0  0  0  0  0  0  0  0  0  0  0
   -6.2778   -2.2210   -0.9867 H   0  0  0  0  0  0  0  0  0  0  0  0
   -6.5780    1.6340    0.9167 H   0  0  0  0  0  0  0  0  0  0  0  0
    3.4696   -1.5664   -2.1651 H   0  0  0  0  0  0  0  0  0  0  0  0
    3.6587   -1.4601    2.1483 H   0  0  0  0  0  0  0  0  0  0  0  0
   -8.5023   -1.4694   -1.5928 H   0  0  0  0  0  0  0  0  0  0  0  0
   -8.3834   -2.3124    0.0012 H   0  0  0  0  0  0  0  0  0  0  0  0
   -9.7373   -1.2334   -0.3480 H   0  0  0  0  0  0  0  0  0  0  0  0
    5.8547   -2.5922    2.0672 H   0  0  0  0  0  0  0  0  0  0  0  0
    5.6643   -2.6998   -2.2243 H   0  0  0  0  0  0  0  0  0  0  0  0
    6.8580   -3.2194   -0.1131 H   0  0  0  0  0  0  0  0  0  0  0  0
  2  1  1  0  0  0  0
  3  1  1  0  0  0  0
  4  1  1  0  0  0  0
  5  2  2  0  0  0  0
  5  9  1  0  0  0  0
  6  3  2  0  0  0  0
  6  7  1  0  0  0  0
  6 25  1  0  0  0  0
  7  4  2  0  0  0  0
  8  3  1  0  0  0  0
  9  8  2  0  0  0  0
  9 26  1  0  0  0  0
 10  7  1  0  0  0  0
 11  5  1  0  0  0  0
 12  2  1  0  0  0  0
 12 27  1  0  0  0  0
 12 28  1  0  0  0  0
 13 10  2  0  0  0  0
 13 29  1  0  0  0  0
 14 10  1  0  0  0  0
 14 30  1  0  0  0  0
 15 17  1  0  0  0  0
 15 16  2  0  0  0  0
 16 13  1  0  0  0  0
 16 31  1  0  0  0  0
 17 14  2  0  0  0  0
 17 32  1  0  0  0  0
 18 15  1  0  0  0  0
 19 11  2  0  0  0  0
 19 33  1  0  0  0  0
 20 11  1  0  0  0  0
 20 34  1  0  0  0  0
 21 18  1  0  0  0  0
 21 35  1  0  0  0  0
 21 36  1  0  0  0  0
 21 37  1  0  0  0  0
 22 20  2  0  0  0  0
 22 38  1  0  0  0  0
 23 19  1  0  0  0  0
 23 39  1  0  0  0  0
 24 22  1  0  0  0  0
 24 23  2  0  0  0  0
 24 40  1  0  0  0  0
M  END
>  <Mol_ID>
8721

>  <Formula>
C19H16N4O

>  <MolWeight>
316.35654

>  <Cat>
P2880

>  <Name>
WAY-607113

>  <Synonyms>
N/A

>  <Target>
antiinflammatory

>  <Form>
free base

>  <CAS>
667872-22-2

>  <URL>
N/A

$$$$
