WAY-329608
 OpenBabel08302521453D

 33 35  0  0  0  0  0  0  0  0999 V2000
    0.1678    0.0346    0.2541 S   0  0  0  0  0  0  0  0  0  0  0  0
   -0.8999    1.4223    0.0938 C   0  0  0  0  0  0  0  0  0  0  0  0
   -2.2800    1.2834   -0.1797 C   0  0  0  0  0  0  0  0  0  0  0  0
   -2.9508    0.1527   -0.4574 N   0  0  0  0  0  0  0  0  0  0  0  0
    0.1793   -0.8191   -1.2904 C   0  0  0  0  0  0  0  0  0  0  0  0
   -4.5484    0.5722   -0.6297 S   0  0  0  0  0  0  0  0  0  0  0  0
   -3.1727    2.5040   -0.1942 C   0  0  0  0  0  0  0  0  0  0  0  0
   -4.4609    2.2171   -0.4349 N   0  0  0  0  0  0  0  0  0  0  0  0
    0.6598    0.0410   -2.4206 C   0  0  0  0  0  0  0  0  0  0  0  0
    0.8076   -0.6764   -3.6039 N   0  0  0  0  0  0  0  0  0  0  0  0
    1.4175   -0.2106   -4.7905 C   0  0  0  0  0  0  0  0  0  0  0  0
   -0.4234    2.7351    0.3012 C   0  0  0  0  0  0  0  0  0  0  0  0
    2.2559    0.9093   -4.8321 C   0  0  0  0  0  0  0  0  0  0  0  0
   -0.4476   -0.8431    1.2342 O   0  0  0  0  0  0  0  0  0  0  0  0
    1.5117    0.5251    0.5150 O   0  0  0  0  0  0  0  0  0  0  0  0
    2.8942    1.2741   -6.0217 C   0  0  0  0  0  0  0  0  0  0  0  0
   -1.2622    3.8737    0.2635 C   0  0  0  0  0  0  0  0  0  0  0  0
   -2.6471    3.7983    0.0344 C   0  0  0  0  0  0  0  0  0  0  0  0
    0.8396    1.2479   -2.3156 O   0  0  0  0  0  0  0  0  0  0  0  0
    1.2125   -0.9501   -5.9642 C   0  0  0  0  0  0  0  0  0  0  0  0
    2.6838    0.5271   -7.1719 C   0  0  0  0  0  0  0  0  0  0  0  0
    1.8389   -0.5752   -7.1573 C   0  0  0  0  0  0  0  0  0  0  0  0
    3.3096    0.8663   -8.3060 F   0  0  0  0  0  0  0  0  0  0  0  0
    0.8602   -1.6691   -1.1680 H   0  0  0  0  0  0  0  0  0  0  0  0
   -0.8231   -1.1952   -1.4991 H   0  0  0  0  0  0  0  0  0  0  0  0
    0.3835   -1.5951   -3.6546 H   0  0  0  0  0  0  0  0  0  0  0  0
    0.6401    2.8899    0.4951 H   0  0  0  0  0  0  0  0  0  0  0  0
    2.4636    1.5002   -3.9448 H   0  0  0  0  0  0  0  0  0  0  0  0
    3.5626    2.1293   -6.0483 H   0  0  0  0  0  0  0  0  0  0  0  0
   -0.8138    4.8547    0.4267 H   0  0  0  0  0  0  0  0  0  0  0  0
   -3.2801    4.6783    0.0267 H   0  0  0  0  0  0  0  0  0  0  0  0
    0.5546   -1.8152   -5.9743 H   0  0  0  0  0  0  0  0  0  0  0  0
    1.6796   -1.1381   -8.0718 H   0  0  0  0  0  0  0  0  0  0  0  0
  2  1  1  0  0  0  0
  3  2  1  0  0  0  0
  4  3  2  0  0  0  0
  5  1  1  0  0  0  0
  5 24  1  0  0  0  0
  5 25  1  0  0  0  0
  6  4  1  0  0  0  0
  6  8  1  0  0  0  0
  7  3  1  0  0  0  0
  7 18  1  0  0  0  0
  8  7  2  0  0  0  0
  9  5  1  0  0  0  0
 10  9  1  0  0  0  0
 10 26  1  0  0  0  0
 11 10  1  0  0  0  0
 12  2  2  0  0  0  0
 12 27  1  0  0  0  0
 13 11  2  0  0  0  0
 13 28  1  0  0  0  0
 14  1  2  0  0  0  0
 15  1  2  0  0  0  0
 16 13  1  0  0  0  0
 16 29  1  0  0  0  0
 17 12  1  0  0  0  0
 17 30  1  0  0  0  0
 18 17  2  0  0  0  0
 18 31  1  0  0  0  0
 19  9  2  0  0  0  0
 20 11  1  0  0  0  0
 20 32  1  0  0  0  0
 21 22  1  0  0  0  0
 21 16  2  0  0  0  0
 22 20  2  0  0  0  0
 22 33  1  0  0  0  0
 23 21  1  0  0  0  0
M  END
>  <Mol_ID>
9326

>  <Formula>
C14H9ClFN3O3S2

>  <MolWeight>
385.8209632

>  <Cat>
P2590

>  <Name>
WAY-329608

>  <Synonyms>
N/A

>  <Target>
others

>  <Form>
free base

>  <CAS>
868963-89-7

>  <URL>
N/A

$$$$
