WAY-623904
 OpenBabel08302521453D

 34 36  0  0  0  0  0  0  0  0999 V2000
    1.8576    0.0385   -0.0119 N   0  0  0  0  0  0  0  0  0  0  0  0
    1.0103   -0.0801   -1.0799 C   0  0  0  0  0  0  0  0  0  0  0  0
    1.1720    0.1936    1.1629 C   0  0  0  0  0  0  0  0  0  0  0  0
   -0.2477    0.0619    0.8358 C   0  0  0  0  0  0  0  0  0  0  0  0
   -0.3436   -0.1342   -0.5299 C   0  0  0  0  0  0  0  0  0  0  0  0
    5.5065    3.8641   -0.5369 C   0  0  0  0  0  0  0  0  0  0  0  0
    6.0501    2.6194   -0.4342 N   0  0  0  0  0  0  0  0  0  0  0  0
    3.3086    0.0190   -0.1132 C   0  0  0  0  0  0  0  0  0  0  0  0
    4.2565    4.1351   -0.4889 N   0  0  0  0  0  0  0  0  0  0  0  0
    5.4009    1.4067   -0.2944 C   0  0  0  0  0  0  0  0  0  0  0  0
    3.8877    1.4178   -0.2160 C   0  0  0  0  0  0  0  0  0  0  0  0
    6.6330    5.1593   -0.7348 S   0  0  0  0  0  0  0  0  0  0  0  0
    1.2682   -0.1272   -2.2671 O   0  0  0  0  0  0  0  0  0  0  0  0
    1.6011    0.3885    2.2838 O   0  0  0  0  0  0  0  0  0  0  0  0
    6.0698    0.3737   -0.2413 O   0  0  0  0  0  0  0  0  0  0  0  0
   -1.3606    0.0567    1.6547 C   0  0  0  0  0  0  0  0  0  0  0  0
   -1.5533   -0.3802   -1.1503 C   0  0  0  0  0  0  0  0  0  0  0  0
    4.0384    5.5735   -0.6926 C   0  0  0  0  0  0  0  0  0  0  0  0
    5.3113    6.3398   -0.3695 C   0  0  0  0  0  0  0  0  0  0  0  0
   -2.6928   -0.4123   -0.3396 C   0  0  0  0  0  0  0  0  0  0  0  0
   -2.5988   -0.1848    1.0495 C   0  0  0  0  0  0  0  0  0  0  0  0
    7.0582    2.5542   -0.4742 H   0  0  0  0  0  0  0  0  0  0  0  0
    3.7047   -0.4892    0.7730 H   0  0  0  0  0  0  0  0  0  0  0  0
    3.5868   -0.5670   -0.9967 H   0  0  0  0  0  0  0  0  0  0  0  0
    3.4892    1.8929   -1.1193 H   0  0  0  0  0  0  0  0  0  0  0  0
    3.5897    1.9970    0.6643 H   0  0  0  0  0  0  0  0  0  0  0  0
   -1.2722    0.2152    2.7246 H   0  0  0  0  0  0  0  0  0  0  0  0
   -1.6094   -0.5634   -2.2184 H   0  0  0  0  0  0  0  0  0  0  0  0
    3.2216    5.9037   -0.0423 H   0  0  0  0  0  0  0  0  0  0  0  0
    3.7185    5.7426   -1.7277 H   0  0  0  0  0  0  0  0  0  0  0  0
    5.3956    7.2551   -0.9600 H   0  0  0  0  0  0  0  0  0  0  0  0
    5.3452    6.5914    0.6949 H   0  0  0  0  0  0  0  0  0  0  0  0
   -3.6645   -0.6236   -0.7832 H   0  0  0  0  0  0  0  0  0  0  0  0
   -3.5008   -0.2120    1.6585 H   0  0  0  0  0  0  0  0  0  0  0  0
  2  1  1  0  0  0  0
  3  1  1  0  0  0  0
  4  3  1  0  0  0  0
  4  5  2  0  0  0  0
  5  2  1  0  0  0  0
  6  7  1  0  0  0  0
  7 10  1  0  0  0  0
  7 22  1  0  0  0  0
  8  1  1  0  0  0  0
  8 23  1  0  0  0  0
  8 24  1  0  0  0  0
  9  6  2  0  0  0  0
 10 11  1  0  0  0  0
 11  8  1  0  0  0  0
 11 25  1  0  0  0  0
 11 26  1  0  0  0  0
 12  6  1  0  0  0  0
 13  2  2  0  0  0  0
 14  3  2  0  0  0  0
 15 10  2  0  0  0  0
 16  4  1  0  0  0  0
 16 27  1  0  0  0  0
 17  5  1  0  0  0  0
 17 28  1  0  0  0  0
 18  9  1  0  0  0  0
 18 29  1  0  0  0  0
 18 30  1  0  0  0  0
 19 12  1  0  0  0  0
 19 18  1  0  0  0  0
 19 31  1  0  0  0  0
 19 32  1  0  0  0  0
 20 17  2  0  0  0  0
 20 33  1  0  0  0  0
 21 16  2  0  0  0  0
 21 20  1  0  0  0  0
 21 34  1  0  0  0  0
M  END
>  <Mol_ID>
9333

>  <Formula>
C14H13N3O3S

>  <MolWeight>
303.33632

>  <Cat>
P2997

>  <Name>
WAY-623904

>  <Synonyms>
N/A

>  <Target>
others

>  <Form>
free base

>  <CAS>
82923-15-7

>  <URL>
N/A

$$$$
