WAY-301122
 OpenBabel08302521413D

 33 35  0  0  0  0  0  0  0  0999 V2000
   -0.3156   -1.2802    0.0064 N   0  0  0  0  0  0  0  0  0  0  0  0
    0.9046   -0.6106    0.0582 C   0  0  0  0  0  0  0  0  0  0  0  0
   -1.2471   -0.2397   -0.0751 C   0  0  0  0  0  0  0  0  0  0  0  0
    0.7185    0.6879    0.0351 N   0  0  0  0  0  0  0  0  0  0  0  0
   -0.6174    0.9205   -0.0582 N   0  0  0  0  0  0  0  0  0  0  0  0
   -0.5686   -2.6873    0.0462 C   0  0  0  0  0  0  0  0  0  0  0  0
   -2.7320   -0.3500    0.0084 C   0  0  0  0  0  0  0  0  0  0  0  0
    2.4990   -1.2975   -0.0130 S   0  0  0  0  0  0  0  0  0  0  0  0
    0.2455   -3.5429    0.8040 C   0  0  0  0  0  0  0  0  0  0  0  0
   -1.6231   -3.2425   -0.6890 C   0  0  0  0  0  0  0  0  0  0  0  0
   -3.2341   -0.4325   -1.3260 O   0  0  0  0  0  0  0  0  0  0  0  0
   -4.5962   -0.4204   -1.4749 C   0  0  0  0  0  0  0  0  0  0  0  0
   -1.0010   -5.4666    0.0361 C   0  0  0  0  0  0  0  0  0  0  0  0
   -7.3413   -0.4055   -2.0578 C   0  0  0  0  0  0  0  0  0  0  0  0
   -1.8427   -4.6231   -0.6845 C   0  0  0  0  0  0  0  0  0  0  0  0
    0.0424   -4.9248    0.7816 C   0  0  0  0  0  0  0  0  0  0  0  0
   -5.5361   -0.3638   -0.4424 C   0  0  0  0  0  0  0  0  0  0  0  0
   -5.0444   -0.4705   -2.7988 C   0  0  0  0  0  0  0  0  0  0  0  0
   -6.4110   -0.4638   -3.0944 C   0  0  0  0  0  0  0  0  0  0  0  0
   -6.9031   -0.3551   -0.7341 C   0  0  0  0  0  0  0  0  0  0  0  0
   -3.0353   -1.2185    0.6032 H   0  0  0  0  0  0  0  0  0  0  0  0
   -3.1097    0.5608    0.4912 H   0  0  0  0  0  0  0  0  0  0  0  0
    2.2062   -2.5256   -0.4569 H   0  0  0  0  0  0  0  0  0  0  0  0
    1.0332   -3.1669    1.4527 H   0  0  0  0  0  0  0  0  0  0  0  0
   -2.2660   -2.6432   -1.3272 H   0  0  0  0  0  0  0  0  0  0  0  0
   -1.1607   -6.5417    0.0188 H   0  0  0  0  0  0  0  0  0  0  0  0
   -8.4038   -0.3946   -2.2819 H   0  0  0  0  0  0  0  0  0  0  0  0
   -2.6616   -5.0431   -1.2644 H   0  0  0  0  0  0  0  0  0  0  0  0
    0.6968   -5.5816    1.3504 H   0  0  0  0  0  0  0  0  0  0  0  0
   -5.2445   -0.3197    0.6010 H   0  0  0  0  0  0  0  0  0  0  0  0
   -4.3228   -0.5077   -3.6114 H   0  0  0  0  0  0  0  0  0  0  0  0
   -6.7454   -0.4986   -4.1242 H   0  0  0  0  0  0  0  0  0  0  0  0
   -7.6287   -0.3043    0.0718 H   0  0  0  0  0  0  0  0  0  0  0  0
  2  1  1  0  0  0  0
  2  4  2  0  0  0  0
  3  1  1  0  0  0  0
  5  3  2  0  0  0  0
  5  4  1  0  0  0  0
  6  1  1  0  0  0  0
  7  3  1  0  0  0  0
  7 21  1  0  0  0  0
  7 22  1  0  0  0  0
  8  2  1  0  0  0  0
  8 23  1  0  0  0  0
  9  6  2  0  0  0  0
  9 16  1  0  0  0  0
  9 24  1  0  0  0  0
 10  6  1  0  0  0  0
 10 25  1  0  0  0  0
 11  7  1  0  0  0  0
 12 11  1  0  0  0  0
 13 15  1  0  0  0  0
 13 16  2  0  0  0  0
 13 26  1  0  0  0  0
 14 19  2  0  0  0  0
 14 20  1  0  0  0  0
 14 27  1  0  0  0  0
 15 10  2  0  0  0  0
 15 28  1  0  0  0  0
 16 29  1  0  0  0  0
 17 12  1  0  0  0  0
 17 20  2  0  0  0  0
 17 30  1  0  0  0  0
 18 12  2  0  0  0  0
 18 31  1  0  0  0  0
 19 18  1  0  0  0  0
 19 32  1  0  0  0  0
 20 33  1  0  0  0  0
M  END
>  <Mol_ID>
8424

>  <Formula>
C15H11Cl2N3OS

>  <MolWeight>
352.23834

>  <Cat>
P2157

>  <Name>
WAY-301122

>  <Synonyms>
N/A

>  <Target>
others

>  <Form>
free base

>  <CAS>
76111-24-5

>  <URL>
N/A

$$$$
