WAY-332030
 OpenBabel08302521443D

 57 59  0  0  0  0  0  0  0  0999 V2000
   -1.4434    3.6254    1.2863 N   0  0  0  0  0  0  0  0  0  0  0  0
   -0.1478    3.1961    1.0575 C   0  0  0  0  0  0  0  0  0  0  0  0
   -1.4445    4.0255    2.5341 C   0  0  0  0  0  0  0  0  0  0  0  0
   -0.2266    3.9169    3.1600 O   0  0  0  0  0  0  0  0  0  0  0  0
    0.5907    3.3630    2.2150 C   0  0  0  0  0  0  0  0  0  0  0  0
    1.2921    5.3786   -1.4831 C   0  0  0  0  0  0  0  0  0  0  0  0
    2.8966    5.3623   -5.3275 N   0  0  0  0  0  0  0  0  0  0  0  0
    1.7963    5.7159   -2.7287 N   0  0  0  0  0  0  0  0  0  0  0  0
    3.5479    5.6695   -6.4995 C   0  0  0  0  0  0  0  0  0  0  0  0
   -0.2026    5.1516   -1.3659 C   0  0  0  0  0  0  0  0  0  0  0  0
   -0.6568    3.4142   -1.6278 S   0  0  3  0  0  0  0  0  0  0  0  0
    0.2909    2.6713   -0.2559 C   0  0  0  0  0  0  0  0  0  0  0  0
   -2.5516    4.5279    3.3428 C   0  0  0  0  0  0  0  0  0  0  0  0
    3.6670    4.9732   -4.1413 C   0  0  0  0  0  0  0  0  0  0  0  0
    1.4401    5.3174   -5.1651 C   0  0  0  0  0  0  0  0  0  0  0  0
    3.2458    5.7946   -2.9158 C   0  0  0  0  0  0  0  0  0  0  0  0
    1.0124    6.0926   -3.9107 C   0  0  0  0  0  0  0  0  0  0  0  0
    4.7701    5.6930   -6.6070 O   0  0  0  0  0  0  0  0  0  0  0  0
    2.0190    5.2196   -0.5059 O   0  0  0  0  0  0  0  0  0  0  0  0
   -0.0723    2.9724   -2.9367 O   0  0  0  0  0  0  0  0  0  0  0  0
   -3.8410    4.5883    2.7862 C   0  0  0  0  0  0  0  0  0  0  0  0
    2.7043    5.9611   -7.5290 O   0  0  0  0  0  0  0  0  0  0  0  0
   -4.9257    5.0777    3.5257 C   0  0  0  0  0  0  0  0  0  0  0  0
    1.9764    3.0830    2.6203 C   0  0  0  0  0  0  0  0  0  0  0  0
   -2.3697    4.9521    4.6646 C   0  0  0  0  0  0  0  0  0  0  0  0
   -3.4388    5.4513    5.4043 C   0  0  0  0  0  0  0  0  0  0  0  0
   -4.7122    5.5175    4.8366 C   0  0  0  0  0  0  0  0  0  0  0  0
    3.3803    6.2988   -8.7501 C   0  0  0  0  0  0  0  0  0  0  0  0
   -6.2994    5.1504    2.9266 C   0  0  0  0  0  0  0  0  0  0  0  0
    2.3556    6.6091   -9.8248 C   0  0  0  0  0  0  0  0  0  0  0  0
   -0.7609    5.7156   -2.1080 H   0  0  0  0  0  0  0  0  0  0  0  0
   -0.5684    5.5246   -0.4086 H   0  0  0  0  0  0  0  0  0  0  0  0
    1.3518    2.8582   -0.4238 H   0  0  0  0  0  0  0  0  0  0  0  0
    0.1423    1.5860   -0.2853 H   0  0  0  0  0  0  0  0  0  0  0  0
    3.4579    3.9114   -3.9619 H   0  0  0  0  0  0  0  0  0  0  0  0
    4.7437    5.0756   -4.3104 H   0  0  0  0  0  0  0  0  0  0  0  0
    0.9217    5.7188   -6.0407 H   0  0  0  0  0  0  0  0  0  0  0  0
    1.1592    4.2625   -5.0644 H   0  0  0  0  0  0  0  0  0  0  0  0
    3.4874    6.8549   -3.0574 H   0  0  0  0  0  0  0  0  0  0  0  0
    3.7802    5.4433   -2.0296 H   0  0  0  0  0  0  0  0  0  0  0  0
    1.1979    7.1636   -4.0560 H   0  0  0  0  0  0  0  0  0  0  0  0
   -0.0580    5.9853   -3.7660 H   0  0  0  0  0  0  0  0  0  0  0  0
   -3.9919    4.2497    1.7621 H   0  0  0  0  0  0  0  0  0  0  0  0
    2.4643    3.9887    2.9955 H   0  0  0  0  0  0  0  0  0  0  0  0
    1.9931    2.3304    3.4161 H   0  0  0  0  0  0  0  0  0  0  0  0
    2.5681    2.7001    1.7840 H   0  0  0  0  0  0  0  0  0  0  0  0
   -1.3814    4.9069    5.1233 H   0  0  0  0  0  0  0  0  0  0  0  0
   -3.2823    5.7995    6.4229 H   0  0  0  0  0  0  0  0  0  0  0  0
   -5.5376    5.9148    5.4222 H   0  0  0  0  0  0  0  0  0  0  0  0
    4.0123    7.1798   -8.5884 H   0  0  0  0  0  0  0  0  0  0  0  0
    4.0019    5.4555   -9.0731 H   0  0  0  0  0  0  0  0  0  0  0  0
   -7.0101    4.5884    3.5411 H   0  0  0  0  0  0  0  0  0  0  0  0
   -6.6265    6.1928    2.8603 H   0  0  0  0  0  0  0  0  0  0  0  0
   -6.3207    4.7244    1.9180 H   0  0  0  0  0  0  0  0  0  0  0  0
    1.7029    5.7479  -10.0001 H   0  0  0  0  0  0  0  0  0  0  0  0
    1.7144    7.4427   -9.5209 H   0  0  0  0  0  0  0  0  0  0  0  0
    2.8480    6.8712  -10.7649 H   0  0  0  0  0  0  0  0  0  0  0  0
  2  1  1  0  0  0  0
  3  1  2  0  0  0  0
  4  3  1  0  0  0  0
  4  5  1  0  0  0  0
  5  2  2  0  0  0  0
  6 10  1  0  0  0  0
  7 15  1  0  0  0  0
  8  6  1  0  0  0  0
  9  7  1  0  0  0  0
 10 11  1  0  0  0  0
 10 31  1  0  0  0  0
 10 32  1  0  0  0  0
 11 12  1  0  0  0  0
 12  2  1  0  0  0  0
 12 33  1  0  0  0  0
 12 34  1  0  0  0  0
 13  3  1  0  0  0  0
 14 16  1  0  0  0  0
 14  7  1  0  0  0  0
 14 35  1  0  0  0  0
 14 36  1  0  0  0  0
 15 17  1  0  0  0  0
 15 37  1  0  0  0  0
 15 38  1  0  0  0  0
 16  8  1  0  0  0  0
 16 39  1  0  0  0  0
 16 40  1  0  0  0  0
 17  8  1  0  0  0  0
 17 41  1  0  0  0  0
 17 42  1  0  0  0  0
 18  9  2  0  0  0  0
 19  6  2  0  0  0  0
 20 11  2  0  0  0  0
 21 13  2  0  0  0  0
 21 43  1  0  0  0  0
 22  9  1  0  0  0  0
 23 21  1  0  0  0  0
 24  5  1  0  0  0  0
 24 44  1  0  0  0  0
 24 45  1  0  0  0  0
 24 46  1  0  0  0  0
 25 13  1  0  0  0  0
 25 47  1  0  0  0  0
 26 25  2  0  0  0  0
 26 48  1  0  0  0  0
 27 26  1  0  0  0  0
 27 23  2  0  0  0  0
 27 49  1  0  0  0  0
 28 22  1  0  0  0  0
 28 50  1  0  0  0  0
 28 51  1  0  0  0  0
 29 23  1  0  0  0  0
 29 52  1  0  0  0  0
 29 53  1  0  0  0  0
 29 54  1  0  0  0  0
 30 28  1  0  0  0  0
 30 55  1  0  0  0  0
 30 56  1  0  0  0  0
 30 57  1  0  0  0  0
M  END
>  <Mol_ID>
9218

>  <Formula>
C21H27N3O5S

>  <MolWeight>
433.52118

>  <Cat>
P2678

>  <Name>
WAY-332030

>  <Synonyms>
N/A

>  <Target>
beta-catenin

>  <Form>
free base

>  <CAS>
958938-00-6

>  <URL>
N/A

$$$$
