WAY-659746
 OpenBabel08302521433D

 32 35  0  0  0  0  0  0  0  0999 V2000
    0.4874    1.5114    0.3364 N   0  0  0  0  0  0  0  0  0  0  0  0
    1.3294    1.2709   -0.7232 C   0  0  0  0  0  0  0  0  0  0  0  0
    2.8071   -3.5188    1.5702 N   0  0  0  0  0  0  0  0  0  0  0  0
    3.5643   -2.4265    1.3569 N   0  0  0  0  0  0  0  0  0  0  0  0
    4.3034   -3.1064    3.2170 N   0  0  0  0  0  0  0  0  0  0  0  0
    3.2783   -3.9078    2.7726 C   0  0  0  0  0  0  0  0  0  0  0  0
    0.5695    0.7549    1.4721 C   0  0  0  0  0  0  0  0  0  0  0  0
    4.4726   -2.1567    2.3098 N   0  0  0  0  0  0  0  0  0  0  0  0
    2.2274    0.3423   -0.7919 N   0  0  0  0  0  0  0  0  0  0  0  0
    1.5801   -0.3287    1.4083 C   0  0  0  0  0  0  0  0  0  0  0  0
    2.3415   -0.4831    0.3147 C   0  0  0  0  0  0  0  0  0  0  0  0
    3.3943   -1.5734    0.1853 C   0  0  0  0  0  0  0  0  0  0  0  0
    0.9929    2.4296   -2.0000 S   0  0  0  0  0  0  0  0  0  0  0  0
   -0.3960    2.5547    0.1450 C   0  0  0  0  0  0  0  0  0  0  0  0
    2.7521   -5.0284    3.5371 C   0  0  0  0  0  0  0  0  0  0  0  0
   -0.2745    3.1551   -1.0457 C   0  0  0  0  0  0  0  0  0  0  0  0
   -0.0940    0.9069    2.4930 O   0  0  0  0  0  0  0  0  0  0  0  0
    3.2293   -5.3065    4.8287 C   0  0  0  0  0  0  0  0  0  0  0  0
    1.7630   -5.8579    2.9832 C   0  0  0  0  0  0  0  0  0  0  0  0
    1.8210   -7.2581    4.9371 C   0  0  0  0  0  0  0  0  0  0  0  0
    2.7579   -6.4195    5.5304 C   0  0  0  0  0  0  0  0  0  0  0  0
    1.3131   -6.9831    3.6737 C   0  0  0  0  0  0  0  0  0  0  0  0
    1.4115   -8.3552    5.5862 F   0  0  0  0  0  0  0  0  0  0  0  0
    1.6503   -0.9526    2.2888 H   0  0  0  0  0  0  0  0  0  0  0  0
    3.1641   -2.2414   -0.6507 H   0  0  0  0  0  0  0  0  0  0  0  0
    4.3769   -1.1228   -0.0042 H   0  0  0  0  0  0  0  0  0  0  0  0
   -1.1017    2.8133    0.9244 H   0  0  0  0  0  0  0  0  0  0  0  0
   -0.8700    3.9869   -1.3983 H   0  0  0  0  0  0  0  0  0  0  0  0
    3.9816   -4.6689    5.2901 H   0  0  0  0  0  0  0  0  0  0  0  0
    1.3561   -5.6416    1.9960 H   0  0  0  0  0  0  0  0  0  0  0  0
    3.1281   -6.6482    6.5250 H   0  0  0  0  0  0  0  0  0  0  0  0
    0.5867   -7.6532    3.2261 H   0  0  0  0  0  0  0  0  0  0  0  0
  2  1  1  0  0  0  0
  3  4  1  0  0  0  0
  4 12  1  0  0  0  0
  5  8  2  0  0  0  0
  5  6  1  0  0  0  0
  6  3  2  0  0  0  0
  7  1  1  0  0  0  0
  8  4  1  0  0  0  0
  9  2  2  0  0  0  0
 10  7  1  0  0  0  0
 10 24  1  0  0  0  0
 11 10  2  0  0  0  0
 11  9  1  0  0  0  0
 12 11  1  0  0  0  0
 12 25  1  0  0  0  0
 12 26  1  0  0  0  0
 13  2  1  0  0  0  0
 13 16  1  0  0  0  0
 14  1  1  0  0  0  0
 14 27  1  0  0  0  0
 15  6  1  0  0  0  0
 16 14  2  0  0  0  0
 16 28  1  0  0  0  0
 17  7  2  0  0  0  0
 18 15  2  0  0  0  0
 18 29  1  0  0  0  0
 19 15  1  0  0  0  0
 19 30  1  0  0  0  0
 20 22  1  0  0  0  0
 21 18  1  0  0  0  0
 21 20  2  0  0  0  0
 21 31  1  0  0  0  0
 22 19  2  0  0  0  0
 22 32  1  0  0  0  0
 23 20  1  0  0  0  0
M  END
>  <Mol_ID>
8843

>  <Formula>
C14H9FN6OS

>  <MolWeight>
328.3242632

>  <Cat>
P3191

>  <Name>
WAY-659746

>  <Synonyms>
N/A

>  <Target>
Others

>  <Form>
free base

>  <CAS>
867327-79-5

>  <URL>
N/A

$$$$
