WAY-620365
 OpenBabel08302521433D

 44 46  0  0  0  0  0  0  0  0999 V2000
   -0.0213    0.8351    0.1474 N   0  0  0  0  0  0  0  0  0  0  0  0
    0.4051   -0.0467    1.0845 C   0  0  0  0  0  0  0  0  0  0  0  0
   -0.6991    0.1619   -0.8306 C   0  0  0  0  0  0  0  0  0  0  0  0
    0.3017   -1.3188    0.5755 N   0  0  0  0  0  0  0  0  0  0  0  0
   -0.6328   -1.3469   -0.5306 C   0  0  3  0  0  0  0  0  0  0  0  0
    0.0234    2.2772    0.2963 C   0  0  0  0  0  0  0  0  0  0  0  0
    1.4304    2.8061    0.0155 C   0  0  0  0  0  0  0  0  0  0  0  0
    2.3126    3.2350    1.1492 C   0  0  0  0  0  0  0  0  0  0  0  0
    2.8431    3.3690    3.5108 C   0  0  0  0  0  0  0  0  0  0  0  0
    2.0108    2.9394    2.4803 C   0  0  0  0  0  0  0  0  0  0  0  0
    0.7548    0.1785    2.2290 O   0  0  0  0  0  0  0  0  0  0  0  0
    4.0062    4.0850    3.2321 C   0  0  0  0  0  0  0  0  0  0  0  0
   -1.3394    0.6628   -1.7468 O   0  0  0  0  0  0  0  0  0  0  0  0
   -1.9439   -1.9343    0.0070 C   0  0  0  0  0  0  0  0  0  0  0  0
    2.4364    3.0536    4.7813 O   0  0  0  0  0  0  0  0  0  0  0  0
    4.8527    4.5464    4.2056 O   0  0  0  0  0  0  0  0  0  0  0  0
    1.8740    2.8657   -1.1345 O   0  0  0  0  0  0  0  0  0  0  0  0
    3.4877    3.9548    0.8708 C   0  0  0  0  0  0  0  0  0  0  0  0
    4.3278    4.3808    1.9096 C   0  0  0  0  0  0  0  0  0  0  0  0
   -3.1698   -1.8839   -0.9118 C   0  0  0  0  0  0  0  0  0  0  0  0
    3.0588    3.9147    5.7363 C   0  0  0  0  0  0  0  0  0  0  0  0
    4.5566    3.9796    5.4910 C   0  0  0  0  0  0  0  0  0  0  0  0
   -2.9358   -2.5973   -2.2392 C   0  0  0  0  0  0  0  0  0  0  0  0
   -4.3602   -2.5130   -0.1786 C   0  0  0  0  0  0  0  0  0  0  0  0
    0.4497   -2.0962    1.2072 H   0  0  0  0  0  0  0  0  0  0  0  0
   -0.2048   -1.9004   -1.3670 H   0  0  0  0  0  0  0  0  0  0  0  0
   -0.6505    2.7485   -0.4297 H   0  0  0  0  0  0  0  0  0  0  0  0
   -0.3367    2.5623    1.2853 H   0  0  0  0  0  0  0  0  0  0  0  0
    1.1333    2.3758    2.7692 H   0  0  0  0  0  0  0  0  0  0  0  0
   -1.7481   -2.9807    0.2864 H   0  0  0  0  0  0  0  0  0  0  0  0
   -2.2077   -1.4292    0.9479 H   0  0  0  0  0  0  0  0  0  0  0  0
    3.7550    4.1948   -0.1572 H   0  0  0  0  0  0  0  0  0  0  0  0
    5.2308    4.9429    1.6842 H   0  0  0  0  0  0  0  0  0  0  0  0
   -3.4240   -0.8380   -1.1152 H   0  0  0  0  0  0  0  0  0  0  0  0
    2.8494    3.5113    6.7319 H   0  0  0  0  0  0  0  0  0  0  0  0
    2.5917    4.9048    5.6643 H   0  0  0  0  0  0  0  0  0  0  0  0
    5.0299    4.6120    6.2486 H   0  0  0  0  0  0  0  0  0  0  0  0
    5.0124    2.9834    5.5416 H   0  0  0  0  0  0  0  0  0  0  0  0
   -2.5449   -3.6088   -2.0858 H   0  0  0  0  0  0  0  0  0  0  0  0
   -3.8708   -2.6798   -2.8041 H   0  0  0  0  0  0  0  0  0  0  0  0
   -2.2233   -2.0460   -2.8606 H   0  0  0  0  0  0  0  0  0  0  0  0
   -4.1798   -3.5724    0.0363 H   0  0  0  0  0  0  0  0  0  0  0  0
   -4.5440   -2.0030    0.7738 H   0  0  0  0  0  0  0  0  0  0  0  0
   -5.2713   -2.4375   -0.7785 H   0  0  0  0  0  0  0  0  0  0  0  0
  2  1  1  0  0  0  0
  3  1  1  0  0  0  0
  4  2  1  0  0  0  0
  4 25  1  0  0  0  0
  5  3  1  0  0  0  0
  5  4  1  0  0  0  0
  5 26  1  0  0  0  0
  6  1  1  0  0  0  0
  6 27  1  0  0  0  0
  6 28  1  0  0  0  0
  7  6  1  0  0  0  0
  8  7  1  0  0  0  0
  9 10  2  0  0  0  0
  9 12  1  0  0  0  0
 10  8  1  0  0  0  0
 10 29  1  0  0  0  0
 11  2  2  0  0  0  0
 12 19  2  0  0  0  0
 13  3  2  0  0  0  0
 14  5  1  0  0  0  0
 14 30  1  0  0  0  0
 14 31  1  0  0  0  0
 15  9  1  0  0  0  0
 16 12  1  0  0  0  0
 17  7  2  0  0  0  0
 18  8  2  0  0  0  0
 18 32  1  0  0  0  0
 19 18  1  0  0  0  0
 19 33  1  0  0  0  0
 20 14  1  0  0  0  0
 20 34  1  0  0  0  0
 21 15  1  0  0  0  0
 21 35  1  0  0  0  0
 21 36  1  0  0  0  0
 22 16  1  0  0  0  0
 22 21  1  0  0  0  0
 22 37  1  0  0  0  0
 22 38  1  0  0  0  0
 23 20  1  0  0  0  0
 23 39  1  0  0  0  0
 23 40  1  0  0  0  0
 23 41  1  0  0  0  0
 24 20  1  0  0  0  0
 24 42  1  0  0  0  0
 24 43  1  0  0  0  0
 24 44  1  0  0  0  0
M  END
>  <Mol_ID>
8772

>  <Formula>
C17H20N2O5

>  <MolWeight>
332.3511

>  <Cat>
P2942

>  <Name>
WAY-620365

>  <Synonyms>
N/A

>  <Target>
Mcl-1

>  <Form>
free base

>  <CAS>
1164096-76-7

>  <URL>
N/A

$$$$
