WAY-620097
 OpenBabel08302521433D

 41 44  0  0  0  0  0  0  0  0999 V2000
    0.6124   -0.7304    0.1615 C   0  0  0  0  0  0  0  0  0  0  0  0
    1.1418    0.5448    0.2794 C   0  0  0  0  0  0  0  0  0  0  0  0
    1.5487   -1.7634    0.1434 C   0  0  0  0  0  0  0  0  0  0  0  0
   -0.0549    1.7581    0.2755 S   0  0  0  0  0  0  0  0  0  0  0  0
    2.4393    0.8701    0.3663 N   0  0  0  0  0  0  0  0  0  0  0  0
   -0.8227   -0.6922    0.0868 C   0  0  0  0  0  0  0  0  0  0  0  0
    2.8688   -1.4871    0.2034 N   0  0  0  0  0  0  0  0  0  0  0  0
   -1.2973    0.6068    0.1307 C   0  0  0  0  0  0  0  0  0  0  0  0
    3.2577   -0.1932    0.2984 C   0  0  0  0  0  0  0  0  0  0  0  0
    5.2780    0.3196   -1.2051 N   0  0  0  0  0  0  0  0  0  0  0  0
    4.7516    0.1023    0.1724 C   0  0  0  0  0  0  0  0  0  0  0  0
   -1.7476   -1.8721    0.0068 C   0  0  0  0  0  0  0  0  0  0  0  0
   -2.7373    1.0031    0.0459 C   0  0  0  0  0  0  0  0  0  0  0  0
    4.6075    1.4534   -1.8602 C   0  0  0  0  0  0  0  0  0  0  0  0
    5.1913   -0.9089   -2.0069 C   0  0  0  0  0  0  0  0  0  0  0  0
   -3.1886   -1.4636   -0.3414 C   0  0  0  0  0  0  0  0  0  0  0  0
   -3.6286   -0.1952    0.4045 C   0  0  0  0  0  0  0  0  0  0  0  0
    5.7640   -0.7064   -3.4108 C   0  0  0  0  0  0  0  0  0  0  0  0
    5.1647    1.7110   -3.2600 C   0  0  0  0  0  0  0  0  0  0  0  0
    5.0748    0.4537   -4.1185 C   0  0  0  0  0  0  0  0  0  0  0  0
    1.2794   -2.8095    0.0526 H   0  0  0  0  0  0  0  0  0  0  0  0
    4.9762    0.9914    0.7761 H   0  0  0  0  0  0  0  0  0  0  0  0
    5.3108   -0.7150    0.6461 H   0  0  0  0  0  0  0  0  0  0  0  0
   -1.7424   -2.3771    0.9813 H   0  0  0  0  0  0  0  0  0  0  0  0
   -1.3853   -2.5918   -0.7356 H   0  0  0  0  0  0  0  0  0  0  0  0
   -2.9584    1.3272   -0.9790 H   0  0  0  0  0  0  0  0  0  0  0  0
   -2.9606    1.8398    0.7158 H   0  0  0  0  0  0  0  0  0  0  0  0
    4.7458    2.3614   -1.2611 H   0  0  0  0  0  0  0  0  0  0  0  0
    3.5291    1.2815   -1.9561 H   0  0  0  0  0  0  0  0  0  0  0  0
    4.1554   -1.2539   -2.1033 H   0  0  0  0  0  0  0  0  0  0  0  0
    5.7607   -1.7083   -1.5172 H   0  0  0  0  0  0  0  0  0  0  0  0
   -3.8676   -2.2904   -0.1041 H   0  0  0  0  0  0  0  0  0  0  0  0
   -3.2661   -1.2865   -1.4214 H   0  0  0  0  0  0  0  0  0  0  0  0
   -4.6711    0.0392    0.1630 H   0  0  0  0  0  0  0  0  0  0  0  0
   -3.5812   -0.3785    1.4858 H   0  0  0  0  0  0  0  0  0  0  0  0
    5.6357   -1.6237   -3.9960 H   0  0  0  0  0  0  0  0  0  0  0  0
    6.8422   -0.5132   -3.3472 H   0  0  0  0  0  0  0  0  0  0  0  0
    6.2095    2.0382   -3.1903 H   0  0  0  0  0  0  0  0  0  0  0  0
    4.6032    2.5234   -3.7354 H   0  0  0  0  0  0  0  0  0  0  0  0
    5.5350    0.6302   -5.0964 H   0  0  0  0  0  0  0  0  0  0  0  0
    4.0210    0.2044   -4.2964 H   0  0  0  0  0  0  0  0  0  0  0  0
  2  1  1  0  0  0  0
  3  1  2  0  0  0  0
  3 21  1  0  0  0  0
  4  2  1  0  0  0  0
  4  8  1  0  0  0  0
  5  2  2  0  0  0  0
  5  9  1  0  0  0  0
  6  1  1  0  0  0  0
  7  3  1  0  0  0  0
  8  6  2  0  0  0  0
  9  7  2  0  0  0  0
 10 11  1  0  0  0  0
 11  9  1  0  0  0  0
 11 22  1  0  0  0  0
 11 23  1  0  0  0  0
 12  6  1  0  0  0  0
 12 24  1  0  0  0  0
 12 25  1  0  0  0  0
 13  8  1  0  0  0  0
 13 17  1  0  0  0  0
 13 26  1  0  0  0  0
 13 27  1  0  0  0  0
 14 10  1  0  0  0  0
 14 28  1  0  0  0  0
 14 29  1  0  0  0  0
 15 10  1  0  0  0  0
 15 30  1  0  0  0  0
 15 31  1  0  0  0  0
 16 12  1  0  0  0  0
 16 32  1  0  0  0  0
 16 33  1  0  0  0  0
 17 16  1  0  0  0  0
 17 34  1  0  0  0  0
 17 35  1  0  0  0  0
 18 15  1  0  0  0  0
 18 36  1  0  0  0  0
 18 37  1  0  0  0  0
 19 14  1  0  0  0  0
 19 20  1  0  0  0  0
 19 38  1  0  0  0  0
 19 39  1  0  0  0  0
 20 18  1  0  0  0  0
 20 40  1  0  0  0  0
 20 41  1  0  0  0  0
M  END
>  <Mol_ID>
8761

>  <Formula>
C16H20ClN3S

>  <MolWeight>
321.8681

>  <Cat>
P2930

>  <Name>
WAY-620097

>  <Synonyms>
N/A

>  <Target>
Dopamine D2 Receptor

>  <Form>
free base

>  <CAS>
731827-03-5

>  <URL>
N/A

$$$$
