WAY-331993
 OpenBabel08302521453D

 57 60  0  0  0  0  0  0  0  0999 V2000
   -2.5982    2.4003   -4.5730 N   0  0  0  0  0  0  0  0  0  0  0  0
   -3.0691    3.0963   -5.5941 C   0  0  0  0  0  0  0  0  0  0  0  0
   -2.8653    3.1925   -3.4705 C   0  0  0  0  0  0  0  0  0  0  0  0
   -3.6363    4.2902   -5.2345 O   0  0  0  0  0  0  0  0  0  0  0  0
   -3.5016    4.3440   -3.8792 C   0  0  0  0  0  0  0  0  0  0  0  0
    2.5341    2.3882   -3.7071 N   0  0  0  0  0  0  0  0  0  0  0  0
    4.5446    0.9778   -5.1885 N   0  0  0  0  0  0  0  0  0  0  0  0
    1.6781    2.8961   -2.7375 C   0  0  0  0  0  0  0  0  0  0  0  0
   -3.0578    2.7854   -7.0174 C   0  0  0  0  0  0  0  0  0  0  0  0
    2.1536    1.5462   -4.8473 C   0  0  0  0  0  0  0  0  0  0  0  0
    3.8915    2.9256   -3.7928 C   0  0  0  0  0  0  0  0  0  0  0  0
    3.1788    0.4177   -5.0844 C   0  0  0  0  0  0  0  0  0  0  0  0
    4.9494    1.8490   -4.0674 C   0  0  0  0  0  0  0  0  0  0  0  0
    5.5223    0.3204   -5.9375 C   0  0  0  0  0  0  0  0  0  0  0  0
   -2.5440    1.5593   -7.4638 C   0  0  0  0  0  0  0  0  0  0  0  0
    2.1155    3.5868   -1.8146 O   0  0  0  0  0  0  0  0  0  0  0  0
   -0.8310    3.4016   -1.6347 S   0  0  0  0  0  0  0  0  0  0  0  0
   -2.4664    2.7692   -2.1045 C   0  0  0  0  0  0  0  0  0  0  0  0
    0.1947    2.5633   -2.8940 C   0  0  0  0  0  0  0  0  0  0  0  0
   -2.5198    1.2367   -8.8276 C   0  0  0  0  0  0  0  0  0  0  0  0
   -4.0305    5.5456   -3.2135 C   0  0  0  0  0  0  0  0  0  0  0  0
   -3.5503    3.6931   -7.9693 C   0  0  0  0  0  0  0  0  0  0  0  0
   -3.5259    3.3845   -9.3292 C   0  0  0  0  0  0  0  0  0  0  0  0
    6.8765    0.2926   -5.5620 C   0  0  0  0  0  0  0  0  0  0  0  0
    5.2043   -0.2854   -7.1601 C   0  0  0  0  0  0  0  0  0  0  0  0
   -3.0108    2.1626   -9.7579 C   0  0  0  0  0  0  0  0  0  0  0  0
   -1.9662   -0.0748   -9.3004 C   0  0  0  0  0  0  0  0  0  0  0  0
    7.8585   -0.2734   -6.3840 C   0  0  0  0  0  0  0  0  0  0  0  0
    6.1738   -0.8614   -7.9839 C   0  0  0  0  0  0  0  0  0  0  0  0
    7.5075   -0.8572   -7.5978 C   0  0  0  0  0  0  0  0  0  0  0  0
    1.1593    1.1145   -4.7162 H   0  0  0  0  0  0  0  0  0  0  0  0
    2.1168    2.2015   -5.7265 H   0  0  0  0  0  0  0  0  0  0  0  0
    3.8822    3.6424   -4.6242 H   0  0  0  0  0  0  0  0  0  0  0  0
    4.1644    3.4852   -2.8931 H   0  0  0  0  0  0  0  0  0  0  0  0
    3.1401   -0.2996   -4.2549 H   0  0  0  0  0  0  0  0  0  0  0  0
    2.8645   -0.1177   -5.9839 H   0  0  0  0  0  0  0  0  0  0  0  0
    5.1249    1.2482   -3.1658 H   0  0  0  0  0  0  0  0  0  0  0  0
    5.8732    2.3907   -4.3054 H   0  0  0  0  0  0  0  0  0  0  0  0
   -2.1593    0.8478   -6.7371 H   0  0  0  0  0  0  0  0  0  0  0  0
   -3.1859    3.1543   -1.3742 H   0  0  0  0  0  0  0  0  0  0  0  0
   -2.4746    1.6782   -2.0146 H   0  0  0  0  0  0  0  0  0  0  0  0
    0.0577    1.4822   -2.8011 H   0  0  0  0  0  0  0  0  0  0  0  0
   -0.1111    2.9089   -3.8853 H   0  0  0  0  0  0  0  0  0  0  0  0
   -3.6145    6.4500   -3.6698 H   0  0  0  0  0  0  0  0  0  0  0  0
   -5.1202    5.5824   -3.3119 H   0  0  0  0  0  0  0  0  0  0  0  0
   -3.7826    5.5571   -2.1485 H   0  0  0  0  0  0  0  0  0  0  0  0
   -3.9567    4.6530   -7.6606 H   0  0  0  0  0  0  0  0  0  0  0  0
   -3.9088    4.0973  -10.0566 H   0  0  0  0  0  0  0  0  0  0  0  0
    7.2048    0.7174   -4.6273 H   0  0  0  0  0  0  0  0  0  0  0  0
    4.1857   -0.2668   -7.5425 H   0  0  0  0  0  0  0  0  0  0  0  0
   -2.9954    1.9318  -10.8201 H   0  0  0  0  0  0  0  0  0  0  0  0
   -2.7122   -0.6037   -9.9020 H   0  0  0  0  0  0  0  0  0  0  0  0
   -1.0673    0.0911   -9.9029 H   0  0  0  0  0  0  0  0  0  0  0  0
   -1.6966   -0.7225   -8.4598 H   0  0  0  0  0  0  0  0  0  0  0  0
    8.8993   -0.2511   -6.0716 H   0  0  0  0  0  0  0  0  0  0  0  0
    5.8864   -1.2974   -8.9377 H   0  0  0  0  0  0  0  0  0  0  0  0
    8.2696   -1.2848   -8.2399 H   0  0  0  0  0  0  0  0  0  0  0  0
  2  1  2  0  0  0  0
  3  1  1  0  0  0  0
  4  2  1  0  0  0  0
  4  5  1  0  0  0  0
  5  3  2  0  0  0  0
  6  8  1  0  0  0  0
  7 13  1  0  0  0  0
  8 19  1  0  0  0  0
  9  2  1  0  0  0  0
 10  6  1  0  0  0  0
 10 31  1  0  0  0  0
 10 32  1  0  0  0  0
 11  6  1  0  0  0  0
 11 33  1  0  0  0  0
 11 34  1  0  0  0  0
 12 10  1  0  0  0  0
 12  7  1  0  0  0  0
 12 35  1  0  0  0  0
 12 36  1  0  0  0  0
 13 11  1  0  0  0  0
 13 37  1  0  0  0  0
 13 38  1  0  0  0  0
 14  7  1  0  0  0  0
 15  9  2  0  0  0  0
 15 39  1  0  0  0  0
 16  8  2  0  0  0  0
 17 18  1  0  0  0  0
 18  3  1  0  0  0  0
 18 40  1  0  0  0  0
 18 41  1  0  0  0  0
 19 17  1  0  0  0  0
 19 42  1  0  0  0  0
 19 43  1  0  0  0  0
 20 15  1  0  0  0  0
 20 26  2  0  0  0  0
 21  5  1  0  0  0  0
 21 44  1  0  0  0  0
 21 45  1  0  0  0  0
 21 46  1  0  0  0  0
 22  9  1  0  0  0  0
 22 47  1  0  0  0  0
 23 22  2  0  0  0  0
 23 48  1  0  0  0  0
 24 14  2  0  0  0  0
 24 49  1  0  0  0  0
 25 14  1  0  0  0  0
 25 50  1  0  0  0  0
 26 23  1  0  0  0  0
 26 51  1  0  0  0  0
 27 20  1  0  0  0  0
 27 52  1  0  0  0  0
 27 53  1  0  0  0  0
 27 54  1  0  0  0  0
 28 24  1  0  0  0  0
 28 55  1  0  0  0  0
 29 25  2  0  0  0  0
 29 56  1  0  0  0  0
 30 29  1  0  0  0  0
 30 28  2  0  0  0  0
 30 57  1  0  0  0  0
M  END
>  <Mol_ID>
9265

>  <Formula>
C24H27N3O2S

>  <MolWeight>
421.55508

>  <Cat>
P2651

>  <Name>
WAY-331993

>  <Synonyms>
N/A

>  <Target>
beta-catenin

>  <Form>
free base

>  <CAS>
902586-05-4

>  <URL>
N/A

$$$$
