WAY-332079
 OpenBabel08302521443D

 49 51  0  0  0  0  0  0  0  0999 V2000
   -0.4187    4.4533    1.6544 N   0  0  0  0  0  0  0  0  0  0  0  0
   -0.7785    3.2784    1.0237 C   0  0  0  0  0  0  0  0  0  0  0  0
   -1.3273    4.6123    2.5980 C   0  0  0  0  0  0  0  0  0  0  0  0
   -2.2439    3.5941    2.6583 O   0  0  0  0  0  0  0  0  0  0  0  0
   -1.8873    2.7470    1.6469 C   0  0  0  0  0  0  0  0  0  0  0  0
   -0.9182    6.0005   -2.5906 C   0  0  0  0  0  0  0  0  0  0  0  0
   -0.4175    5.1654   -1.4301 C   0  0  0  0  0  0  0  0  0  0  0  0
   -0.7244    3.3976   -1.7202 S   0  0  3  0  0  0  0  0  0  0  0  0
   -0.0154    2.7948   -0.1504 C   0  0  0  0  0  0  0  0  0  0  0  0
    0.0003    6.7498   -3.3177 N   0  0  0  0  0  0  0  0  0  0  0  0
   -1.5210    5.7292    3.5187 C   0  0  0  0  0  0  0  0  0  0  0  0
   -2.1307    6.0437   -2.8287 O   0  0  0  0  0  0  0  0  0  0  0  0
   -0.4866    7.6645   -4.3474 C   0  0  0  0  0  0  0  0  0  0  0  0
    0.1994    2.9441   -2.8155 O   0  0  0  0  0  0  0  0  0  0  0  0
   -0.4377    7.1140   -5.7528 C   0  0  0  0  0  0  0  0  0  0  0  0
   -2.7370    1.5599    1.4512 C   0  0  0  0  0  0  0  0  0  0  0  0
    1.4361    6.6953   -3.0976 C   0  0  0  0  0  0  0  0  0  0  0  0
   -0.6860    6.8533    3.4292 C   0  0  0  0  0  0  0  0  0  0  0  0
   -2.5428    5.7291    4.4796 C   0  0  0  0  0  0  0  0  0  0  0  0
   -1.1601    5.9613   -6.0998 C   0  0  0  0  0  0  0  0  0  0  0  0
    0.2348    7.8108   -6.7713 C   0  0  0  0  0  0  0  0  0  0  0  0
   -0.8751    7.9542    4.2699 C   0  0  0  0  0  0  0  0  0  0  0  0
   -2.7310    6.8305    5.3217 C   0  0  0  0  0  0  0  0  0  0  0  0
    0.1489    7.3899   -8.1007 C   0  0  0  0  0  0  0  0  0  0  0  0
   -1.2442    5.5411   -7.4287 C   0  0  0  0  0  0  0  0  0  0  0  0
   -1.8996    7.9419    5.2122 C   0  0  0  0  0  0  0  0  0  0  0  0
   -0.6009    6.2634   -8.4307 C   0  0  0  0  0  0  0  0  0  0  0  0
   -0.9954    5.4933   -0.5626 H   0  0  0  0  0  0  0  0  0  0  0  0
    0.6387    5.3091   -1.2049 H   0  0  0  0  0  0  0  0  0  0  0  0
    1.0302    3.1144   -0.0983 H   0  0  0  0  0  0  0  0  0  0  0  0
   -0.0264    1.7009   -0.1917 H   0  0  0  0  0  0  0  0  0  0  0  0
   -1.5236    7.9522   -4.1362 H   0  0  0  0  0  0  0  0  0  0  0  0
    0.0993    8.5889   -4.2717 H   0  0  0  0  0  0  0  0  0  0  0  0
   -2.7895    0.9703    2.3716 H   0  0  0  0  0  0  0  0  0  0  0  0
   -3.7518    1.8613    1.1769 H   0  0  0  0  0  0  0  0  0  0  0  0
   -2.3451    0.9170    0.6574 H   0  0  0  0  0  0  0  0  0  0  0  0
    1.6527    7.1158   -2.1073 H   0  0  0  0  0  0  0  0  0  0  0  0
    1.7736    5.6563   -3.1360 H   0  0  0  0  0  0  0  0  0  0  0  0
    1.9705    7.2752   -3.8525 H   0  0  0  0  0  0  0  0  0  0  0  0
    0.1130    6.8803    2.6917 H   0  0  0  0  0  0  0  0  0  0  0  0
   -3.2095    4.8759    4.5779 H   0  0  0  0  0  0  0  0  0  0  0  0
   -1.6936    5.3990   -5.3362 H   0  0  0  0  0  0  0  0  0  0  0  0
    0.8052    8.7084   -6.5397 H   0  0  0  0  0  0  0  0  0  0  0  0
   -0.2257    8.8218    4.1821 H   0  0  0  0  0  0  0  0  0  0  0  0
   -3.5323    6.8192    6.0560 H   0  0  0  0  0  0  0  0  0  0  0  0
    0.6512    7.9528   -8.8831 H   0  0  0  0  0  0  0  0  0  0  0  0
   -1.8295    4.6610   -7.6793 H   0  0  0  0  0  0  0  0  0  0  0  0
   -2.0512    8.8015    5.8642 H   0  0  0  0  0  0  0  0  0  0  0  0
   -0.6907    5.9513   -9.4671 H   0  0  0  0  0  0  0  0  0  0  0  0
  2  1  1  0  0  0  0
  3  1  2  0  0  0  0
  4  3  1  0  0  0  0
  5  2  2  0  0  0  0
  5  4  1  0  0  0  0
  6  7  1  0  0  0  0
  7  8  1  0  0  0  0
  7 28  1  0  0  0  0
  7 29  1  0  0  0  0
  8  9  1  0  0  0  0
  9  2  1  0  0  0  0
  9 30  1  0  0  0  0
  9 31  1  0  0  0  0
 10  6  1  0  0  0  0
 11  3  1  0  0  0  0
 12  6  2  0  0  0  0
 13 10  1  0  0  0  0
 13 32  1  0  0  0  0
 13 33  1  0  0  0  0
 14  8  2  0  0  0  0
 15 13  1  0  0  0  0
 16  5  1  0  0  0  0
 16 34  1  0  0  0  0
 16 35  1  0  0  0  0
 16 36  1  0  0  0  0
 17 10  1  0  0  0  0
 17 37  1  0  0  0  0
 17 38  1  0  0  0  0
 17 39  1  0  0  0  0
 18 11  2  0  0  0  0
 18 40  1  0  0  0  0
 19 11  1  0  0  0  0
 19 41  1  0  0  0  0
 20 15  2  0  0  0  0
 20 42  1  0  0  0  0
 21 15  1  0  0  0  0
 21 43  1  0  0  0  0
 22 18  1  0  0  0  0
 22 44  1  0  0  0  0
 23 19  2  0  0  0  0
 23 45  1  0  0  0  0
 24 21  2  0  0  0  0
 24 46  1  0  0  0  0
 25 20  1  0  0  0  0
 25 27  2  0  0  0  0
 25 47  1  0  0  0  0
 26 23  1  0  0  0  0
 26 22  2  0  0  0  0
 26 48  1  0  0  0  0
 27 24  1  0  0  0  0
 27 49  1  0  0  0  0
M  END
>  <Mol_ID>
9196

>  <Formula>
C21H22N2O3S

>  <MolWeight>
382.47598

>  <Cat>
P2719

>  <Name>
WAY-332079

>  <Synonyms>
N/A

>  <Target>
beta-catenin

>  <Form>
free base

>  <CAS>
958521-30-7

>  <URL>
N/A

$$$$
