WAY-323304
 OpenBabel08302521423D

 38 40  0  0  0  0  0  0  0  0999 V2000
   -0.4946    0.6916   -0.1954 C   0  0  0  0  0  0  0  0  0  0  0  0
   -0.5044   -0.6366    0.2059 C   0  0  0  0  0  0  0  0  0  0  0  0
   -1.8224    1.0498   -0.3500 N   0  0  0  0  0  0  0  0  0  0  0  0
   -2.6651    0.0194   -0.1725 N   0  0  0  0  0  0  0  0  0  0  0  0
   -1.8722   -0.9801    0.1647 C   0  0  0  0  0  0  0  0  0  0  0  0
    0.5794    1.5553   -0.3069 N   0  0  0  0  0  0  0  0  0  0  0  0
    0.6142   -1.5296    0.5677 C   0  0  3  0  0  0  0  0  0  0  0  0
    1.8845   -1.4688   -0.7160 S   0  0  0  0  0  0  0  0  0  0  0  0
    1.9876    1.3355   -0.1703 C   0  0  0  0  0  0  0  0  0  0  0  0
    1.0754   -1.2628    1.9961 C   0  0  0  0  0  0  0  0  0  0  0  0
   -2.3792    2.3765   -0.5944 C   0  0  0  0  0  0  0  0  0  0  0  0
    2.7442    0.0424   -0.2860 C   0  0  0  0  0  0  0  0  0  0  0  0
    2.5896    2.3870    0.0301 O   0  0  0  0  0  0  0  0  0  0  0  0
   -2.4930   -2.1346    0.4173 O   0  0  0  0  0  0  0  0  0  0  0  0
    1.6658   -2.3276    2.7076 C   0  0  0  0  0  0  0  0  0  0  0  0
    0.9889   -0.0223    2.6598 C   0  0  0  0  0  0  0  0  0  0  0  0
    2.0982   -0.9027    4.6097 C   0  0  0  0  0  0  0  0  0  0  0  0
    1.5077    0.1630    3.9438 C   0  0  0  0  0  0  0  0  0  0  0  0
    2.1639   -2.1523    4.0041 C   0  0  0  0  0  0  0  0  0  0  0  0
    2.8120   -0.6442    6.3382 Br  0  0  0  0  0  0  0  0  0  0  0  0
   -3.1377    2.4383   -1.9178 C   0  0  0  0  0  0  0  0  0  0  0  0
   -3.2561    2.8317    0.5749 C   0  0  0  0  0  0  0  0  0  0  0  0
    0.3894    2.5477   -0.3986 H   0  0  0  0  0  0  0  0  0  0  0  0
    0.2441   -2.5624    0.5375 H   0  0  0  0  0  0  0  0  0  0  0  0
   -1.5374    3.0723   -0.6631 H   0  0  0  0  0  0  0  0  0  0  0  0
    3.3250   -0.1129    0.6281 H   0  0  0  0  0  0  0  0  0  0  0  0
    3.4700    0.2024   -1.0928 H   0  0  0  0  0  0  0  0  0  0  0  0
   -1.8749   -2.8453    0.6367 H   0  0  0  0  0  0  0  0  0  0  0  0
    1.7466   -3.3174    2.2577 H   0  0  0  0  0  0  0  0  0  0  0  0
    0.5126    0.8447    2.2152 H   0  0  0  0  0  0  0  0  0  0  0  0
    1.4449    1.1424    4.4124 H   0  0  0  0  0  0  0  0  0  0  0  0
    2.6050   -2.9962    4.5306 H   0  0  0  0  0  0  0  0  0  0  0  0
   -3.9879    1.7482   -1.9314 H   0  0  0  0  0  0  0  0  0  0  0  0
   -3.5213    3.4484   -2.0957 H   0  0  0  0  0  0  0  0  0  0  0  0
   -2.4799    2.1753   -2.7531 H   0  0  0  0  0  0  0  0  0  0  0  0
   -4.1351    2.1890    0.6972 H   0  0  0  0  0  0  0  0  0  0  0  0
   -2.6946    2.8083    1.5157 H   0  0  0  0  0  0  0  0  0  0  0  0
   -3.6091    3.8563    0.4182 H   0  0  0  0  0  0  0  0  0  0  0  0
  2  1  2  0  0  0  0
  3  1  1  0  0  0  0
  4  3  1  0  0  0  0
  4  5  2  0  0  0  0
  5  2  1  0  0  0  0
  6  1  1  0  0  0  0
  6 23  1  0  0  0  0
  7  2  1  0  0  0  0
  7 24  1  0  0  0  0
  8  7  1  0  0  0  0
  8 12  1  0  0  0  0
  9  6  1  0  0  0  0
 10  7  1  0  0  0  0
 11  3  1  0  0  0  0
 11 25  1  0  0  0  0
 12  9  1  0  0  0  0
 12 26  1  0  0  0  0
 12 27  1  0  0  0  0
 13  9  2  0  0  0  0
 14  5  1  0  0  0  0
 14 28  1  0  0  0  0
 15 10  2  0  0  0  0
 15 29  1  0  0  0  0
 16 10  1  0  0  0  0
 16 30  1  0  0  0  0
 17 18  1  0  0  0  0
 17 19  2  0  0  0  0
 18 16  2  0  0  0  0
 18 31  1  0  0  0  0
 19 15  1  0  0  0  0
 19 32  1  0  0  0  0
 20 17  1  0  0  0  0
 21 11  1  0  0  0  0
 21 33  1  0  0  0  0
 21 34  1  0  0  0  0
 21 35  1  0  0  0  0
 22 11  1  0  0  0  0
 22 36  1  0  0  0  0
 22 37  1  0  0  0  0
 22 38  1  0  0  0  0
M  END
>  <Mol_ID>
8573

>  <Formula>
C15H16BrN3O2S

>  <MolWeight>
382.27544

>  <Cat>
P2257

>  <Name>
WAY-323304

>  <Synonyms>
N/A

>  <Target>
Anti-infection

>  <Form>
free base

>  <CAS>
854024-61-6

>  <URL>
N/A

$$$$
