WAY-661688
 OpenBabel08302521443D

 36 39  0  0  0  0  0  0  0  0999 V2000
   -0.8811   -3.9484    2.4173 N   0  0  0  0  0  0  0  0  0  0  0  0
   -0.1256   -4.8660    3.0997 C   0  0  0  0  0  0  0  0  0  0  0  0
    0.9039   -5.1838    2.3339 N   0  0  0  0  0  0  0  0  0  0  0  0
   -3.7639   -1.9205    3.3811 N   0  0  0  0  0  0  0  0  0  0  0  0
   -3.7104   -0.7490    2.7745 C   0  0  0  0  0  0  0  0  0  0  0  0
   -0.2843   -3.7537    1.2112 C   0  0  0  0  0  0  0  0  0  0  0  0
   -3.3562   -0.8632    1.4518 O   0  0  0  0  0  0  0  0  0  0  0  0
    0.8077   -4.4756    1.1509 N   0  0  0  0  0  0  0  0  0  0  0  0
   -3.4560   -2.8706    2.4373 N   0  0  0  0  0  0  0  0  0  0  0  0
   -3.2067   -2.2167    1.3200 C   0  0  0  0  0  0  0  0  0  0  0  0
   -0.8288   -2.6201    0.0274 S   0  0  0  0  0  0  0  0  0  0  0  0
   -0.4388   -5.3726    4.4358 C   0  0  0  0  0  0  0  0  0  0  0  0
   -3.9507    0.5877    3.2994 C   0  0  0  0  0  0  0  0  0  0  0  0
   -0.9893   -6.3902    6.9978 N   0  0  0  0  0  0  0  0  0  0  0  0
   -2.6431   -2.7478    0.0578 C   0  0  0  0  0  0  0  0  0  0  0  0
   -1.8044   -5.5003    6.4021 C   0  0  0  0  0  0  0  0  0  0  0  0
    0.1045   -6.7692    6.3044 C   0  0  0  0  0  0  0  0  0  0  0  0
   -1.5786   -4.9686    5.1411 C   0  0  0  0  0  0  0  0  0  0  0  0
    0.4169   -6.2963    5.0416 C   0  0  0  0  0  0  0  0  0  0  0  0
   -3.8219    1.7329    2.4995 C   0  0  0  0  0  0  0  0  0  0  0  0
   -4.3281    0.7470    4.6422 C   0  0  0  0  0  0  0  0  0  0  0  0
   -4.5854    2.0156    5.1674 C   0  0  0  0  0  0  0  0  0  0  0  0
   -4.0795    3.0019    3.0252 C   0  0  0  0  0  0  0  0  0  0  0  0
   -4.4650    3.1415    4.3567 C   0  0  0  0  0  0  0  0  0  0  0  0
   -1.7209   -3.5087    2.7613 H   0  0  0  0  0  0  0  0  0  0  0  0
   -3.0405   -2.1793   -0.7894 H   0  0  0  0  0  0  0  0  0  0  0  0
   -2.9411   -3.7921   -0.0828 H   0  0  0  0  0  0  0  0  0  0  0  0
   -2.6796   -5.2117    6.9792 H   0  0  0  0  0  0  0  0  0  0  0  0
    0.7465   -7.4889    6.8063 H   0  0  0  0  0  0  0  0  0  0  0  0
   -2.2959   -4.2587    4.7448 H   0  0  0  0  0  0  0  0  0  0  0  0
    1.3147   -6.6441    4.5377 H   0  0  0  0  0  0  0  0  0  0  0  0
   -3.5212    1.6521    1.4570 H   0  0  0  0  0  0  0  0  0  0  0  0
   -4.4288   -0.1212    5.2920 H   0  0  0  0  0  0  0  0  0  0  0  0
   -4.8822    2.1229    6.2079 H   0  0  0  0  0  0  0  0  0  0  0  0
   -3.9812    3.8815    2.3934 H   0  0  0  0  0  0  0  0  0  0  0  0
   -4.6712    4.1288    4.7631 H   0  0  0  0  0  0  0  0  0  0  0  0
  1 25  1  0  0  0  0
  2  1  1  0  0  0  0
  3  2  2  0  0  0  0
  3  8  1  0  0  0  0
  4  9  1  0  0  0  0
  5  7  1  0  0  0  0
  5  4  2  0  0  0  0
  6  1  1  0  0  0  0
  7 10  1  0  0  0  0
  8  6  2  0  0  0  0
  9 10  2  0  0  0  0
 10 15  1  0  0  0  0
 11  6  1  0  0  0  0
 12  2  1  0  0  0  0
 13  5  1  0  0  0  0
 14 17  2  0  0  0  0
 14 16  1  0  0  0  0
 15 11  1  0  0  0  0
 15 26  1  0  0  0  0
 15 27  1  0  0  0  0
 16 18  2  0  0  0  0
 16 28  1  0  0  0  0
 17 19  1  0  0  0  0
 17 29  1  0  0  0  0
 18 12  1  0  0  0  0
 18 30  1  0  0  0  0
 19 12  2  0  0  0  0
 19 31  1  0  0  0  0
 20 13  2  0  0  0  0
 20 32  1  0  0  0  0
 21 13  1  0  0  0  0
 21 33  1  0  0  0  0
 22 21  2  0  0  0  0
 22 34  1  0  0  0  0
 23 20  1  0  0  0  0
 23 35  1  0  0  0  0
 24 22  1  0  0  0  0
 24 23  2  0  0  0  0
 24 36  1  0  0  0  0
M  END
>  <Mol_ID>
9129

>  <Formula>
C16H12N6OS

>  <MolWeight>
336.37108

>  <Cat>
P3210

>  <Name>
WAY-661688

>  <Synonyms>
N/A

>  <Target>
tie2

>  <Form>
free base

>  <CAS>
896687-93-7

>  <URL>
N/A

$$$$
