WAY-325765
 OpenBabel08302521433D

 46 48  0  0  0  0  0  0  0  0999 V2000
   -0.4130    4.6445   -1.8258 N   0  0  0  0  0  0  0  0  0  0  0  0
   -0.9784    4.7174   -3.0132 C   0  0  0  0  0  0  0  0  0  0  0  0
   -0.6803    3.3755   -1.4075 C   0  0  0  0  0  0  0  0  0  0  0  0
   -1.5280    3.4864   -3.2850 N   0  0  0  0  0  0  0  0  0  0  0  0
   -1.3418    2.6199   -2.2808 N   0  0  0  0  0  0  0  0  0  0  0  0
   -0.9271    5.8183   -3.9752 C   0  0  0  0  0  0  0  0  0  0  0  0
    2.3783    2.7982    1.2227 C   0  0  0  0  0  0  0  0  0  0  0  0
    3.6583    3.3326    1.3061 N   0  0  0  0  0  0  0  0  0  0  0  0
   -0.1359    2.7611    0.1101 S   0  0  0  0  0  0  0  0  0  0  0  0
    4.9426    2.7078    4.7849 C   0  0  0  0  0  0  0  0  0  0  0  0
   -1.0826    7.1916   -3.6871 C   0  0  0  0  0  0  0  0  0  0  0  0
    4.5111    3.2714    2.4364 C   0  0  0  0  0  0  0  0  0  0  0  0
    4.1507    2.6315    3.6270 C   0  0  0  0  0  0  0  0  0  0  0  0
    6.1642    3.3937    4.7335 C   0  0  0  0  0  0  0  0  0  0  0  0
    1.8949    2.0029    2.0295 O   0  0  0  0  0  0  0  0  0  0  0  0
    6.5508    4.0011    3.5268 C   0  0  0  0  0  0  0  0  0  0  0  0
    1.6003    3.2965    0.0170 C   0  0  0  0  0  0  0  0  0  0  0  0
    5.7302    3.9464    2.3912 C   0  0  0  0  0  0  0  0  0  0  0  0
   -0.6476    5.4528   -5.3144 C   0  0  0  0  0  0  0  0  0  0  0  0
   -1.3878    7.8544   -2.5321 O   0  0  0  0  0  0  0  0  0  0  0  0
    4.4056    2.0859    6.0440 C   0  0  0  0  0  0  0  0  0  0  0  0
   -0.9350    8.1213   -4.7347 C   0  0  0  0  0  0  0  0  0  0  0  0
    7.0688    3.5301    5.9272 C   0  0  0  0  0  0  0  0  0  0  0  0
   -1.5050    7.1962   -1.2869 C   0  0  0  0  0  0  0  0  0  0  0  0
   -0.5125    6.3902   -6.3353 C   0  0  0  0  0  0  0  0  0  0  0  0
   -0.6499    7.7345   -6.0423 C   0  0  0  0  0  0  0  0  0  0  0  0
   -1.9843    3.1671   -4.1313 H   0  0  0  0  0  0  0  0  0  0  0  0
    3.9997    3.8714    0.5192 H   0  0  0  0  0  0  0  0  0  0  0  0
    3.2252    2.0736    3.7015 H   0  0  0  0  0  0  0  0  0  0  0  0
    7.4892    4.5469    3.4724 H   0  0  0  0  0  0  0  0  0  0  0  0
    2.0651    2.8930   -0.8880 H   0  0  0  0  0  0  0  0  0  0  0  0
    1.6462    4.3918   -0.0053 H   0  0  0  0  0  0  0  0  0  0  0  0
    6.0570    4.4570    1.4887 H   0  0  0  0  0  0  0  0  0  0  0  0
   -0.4924    4.4064   -5.5863 H   0  0  0  0  0  0  0  0  0  0  0  0
    5.0823    1.3098    6.4128 H   0  0  0  0  0  0  0  0  0  0  0  0
    4.2659    2.8565    6.8093 H   0  0  0  0  0  0  0  0  0  0  0  0
    3.4285    1.6175    5.8791 H   0  0  0  0  0  0  0  0  0  0  0  0
   -1.0440    9.1846   -4.5164 H   0  0  0  0  0  0  0  0  0  0  0  0
    8.0675    3.1522    5.6861 H   0  0  0  0  0  0  0  0  0  0  0  0
    7.1420    4.5817    6.2221 H   0  0  0  0  0  0  0  0  0  0  0  0
    6.7131    2.9679    6.7953 H   0  0  0  0  0  0  0  0  0  0  0  0
   -2.2838    6.4304   -1.3040 H   0  0  0  0  0  0  0  0  0  0  0  0
   -0.5347    6.8246   -0.9505 H   0  0  0  0  0  0  0  0  0  0  0  0
   -1.8135    7.9476   -0.5506 H   0  0  0  0  0  0  0  0  0  0  0  0
   -0.2845    6.0714   -7.3504 H   0  0  0  0  0  0  0  0  0  0  0  0
   -0.5321    8.4842   -6.8191 H   0  0  0  0  0  0  0  0  0  0  0  0
  2  1  2  0  0  0  0
  3  1  1  0  0  0  0
  4  2  1  0  0  0  0
  4  5  1  0  0  0  0
  4 27  1  0  0  0  0
  5  3  2  0  0  0  0
  6  2  1  0  0  0  0
  7 17  1  0  0  0  0
  8  7  1  0  0  0  0
  8 28  1  0  0  0  0
  9  3  1  0  0  0  0
 10 13  2  0  0  0  0
 10 14  1  0  0  0  0
 11  6  2  0  0  0  0
 12  8  1  0  0  0  0
 13 12  1  0  0  0  0
 13 29  1  0  0  0  0
 14 16  2  0  0  0  0
 15  7  2  0  0  0  0
 16 18  1  0  0  0  0
 16 30  1  0  0  0  0
 17  9  1  0  0  0  0
 17 31  1  0  0  0  0
 17 32  1  0  0  0  0
 18 12  2  0  0  0  0
 18 33  1  0  0  0  0
 19  6  1  0  0  0  0
 19 34  1  0  0  0  0
 20 11  1  0  0  0  0
 21 10  1  0  0  0  0
 21 35  1  0  0  0  0
 21 36  1  0  0  0  0
 21 37  1  0  0  0  0
 22 11  1  0  0  0  0
 22 26  2  0  0  0  0
 22 38  1  0  0  0  0
 23 14  1  0  0  0  0
 23 39  1  0  0  0  0
 23 40  1  0  0  0  0
 23 41  1  0  0  0  0
 24 20  1  0  0  0  0
 24 42  1  0  0  0  0
 24 43  1  0  0  0  0
 24 44  1  0  0  0  0
 25 19  2  0  0  0  0
 25 45  1  0  0  0  0
 26 25  1  0  0  0  0
 26 46  1  0  0  0  0
M  END
>  <Mol_ID>
8879

>  <Formula>
C19H20N4O2S

>  <MolWeight>
368.4527

>  <Cat>
P2427

>  <Name>
WAY-325765

>  <Synonyms>
N/A

>  <Target>
glucokinase

>  <Form>
free base

>  <CAS>
869471-49-8

>  <URL>
N/A

$$$$
