WAY-638924
 OpenBabel08302521433D

 43 45  0  0  0  0  0  0  0  0999 V2000
    0.9416    0.5804    0.0751 N   0  0  0  0  0  0  0  0  0  0  0  0
   -0.4192   -1.2112    0.1116 C   0  0  0  0  0  0  0  0  0  0  0  0
   -2.9793   -4.8292    1.2862 C   0  0  0  0  0  0  0  0  0  0  0  0
    0.9125   -0.7970    0.2117 C   0  0  0  0  0  0  0  0  0  0  0  0
   -2.2930   -5.7240    2.0533 N   0  0  0  0  0  0  0  0  0  0  0  0
   -3.8339   -4.1859    2.0492 N   0  0  0  0  0  0  0  0  0  0  0  0
   -3.6844   -4.7185    3.3085 N   0  0  0  0  0  0  0  0  0  0  0  0
   -1.1963   -0.0279   -0.0381 C   0  0  0  0  0  0  0  0  0  0  0  0
   -2.7525   -5.6647    3.3207 N   0  0  0  0  0  0  0  0  0  0  0  0
   -0.3505    1.0639   -0.0178 C   0  0  0  0  0  0  0  0  0  0  0  0
   -0.9102   -2.6002    0.1612 C   0  0  0  0  0  0  0  0  0  0  0  0
   -2.7595   -4.6164   -0.4111 S   0  0  0  0  0  0  0  0  0  0  0  0
    2.1516    1.4135    0.0061 C   0  0  0  0  0  0  0  0  0  0  0  0
   -2.2868   -2.8598   -0.4509 C   0  0  0  0  0  0  0  0  0  0  0  0
   -0.2255   -3.5083    0.6404 O   0  0  0  0  0  0  0  0  0  0  0  0
   -1.2378   -6.6358    1.7190 C   0  0  0  0  0  0  0  0  0  0  0  0
    2.1503   -1.6100    0.4078 C   0  0  0  0  0  0  0  0  0  0  0  0
    2.5385    2.0801    1.3080 C   0  0  0  0  0  0  0  0  0  0  0  0
   -0.6935    2.5118   -0.0510 C   0  0  0  0  0  0  0  0  0  0  0  0
    1.9492    1.7670    2.5422 C   0  0  0  0  0  0  0  0  0  0  0  0
    3.5337    3.0732    1.2809 C   0  0  0  0  0  0  0  0  0  0  0  0
    3.8861    3.7672    2.4414 C   0  0  0  0  0  0  0  0  0  0  0  0
    2.2958    2.4666    3.6995 C   0  0  0  0  0  0  0  0  0  0  0  0
    3.2557    3.4730    3.6474 C   0  0  0  0  0  0  0  0  0  0  0  0
   -2.2743    0.0391   -0.1101 H   0  0  0  0  0  0  0  0  0  0  0  0
    2.9712    0.7938   -0.3693 H   0  0  0  0  0  0  0  0  0  0  0  0
    1.9539    2.1793   -0.7545 H   0  0  0  0  0  0  0  0  0  0  0  0
   -3.0499   -2.2615    0.0567 H   0  0  0  0  0  0  0  0  0  0  0  0
   -2.2466   -2.5636   -1.5045 H   0  0  0  0  0  0  0  0  0  0  0  0
   -0.4477   -6.5494    2.4695 H   0  0  0  0  0  0  0  0  0  0  0  0
   -1.6481   -7.6486    1.7196 H   0  0  0  0  0  0  0  0  0  0  0  0
   -0.8239   -6.4035    0.7367 H   0  0  0  0  0  0  0  0  0  0  0  0
    2.5815   -1.8777   -0.5618 H   0  0  0  0  0  0  0  0  0  0  0  0
    2.9052   -1.0649    0.9866 H   0  0  0  0  0  0  0  0  0  0  0  0
    1.9507   -2.5296    0.9606 H   0  0  0  0  0  0  0  0  0  0  0  0
   -0.2956    3.0280    0.8294 H   0  0  0  0  0  0  0  0  0  0  0  0
   -0.2940    2.9889   -0.9512 H   0  0  0  0  0  0  0  0  0  0  0  0
   -1.7796    2.6529   -0.0491 H   0  0  0  0  0  0  0  0  0  0  0  0
    1.1920    0.9895    2.6221 H   0  0  0  0  0  0  0  0  0  0  0  0
    4.0347    3.3262    0.3482 H   0  0  0  0  0  0  0  0  0  0  0  0
    4.6447    4.5446    2.4026 H   0  0  0  0  0  0  0  0  0  0  0  0
    1.8055    2.2281    4.6399 H   0  0  0  0  0  0  0  0  0  0  0  0
    3.5120    4.0258    4.5474 H   0  0  0  0  0  0  0  0  0  0  0  0
  2  4  2  0  0  0  0
  2  8  1  0  0  0  0
  3 12  1  0  0  0  0
  4  1  1  0  0  0  0
  5  3  1  0  0  0  0
  6  3  2  0  0  0  0
  7  6  1  0  0  0  0
  8 10  2  0  0  0  0
  8 25  1  0  0  0  0
  9  5  1  0  0  0  0
  9  7  2  0  0  0  0
 10  1  1  0  0  0  0
 11  2  1  0  0  0  0
 12 14  1  0  0  0  0
 13  1  1  0  0  0  0
 13 26  1  0  0  0  0
 13 27  1  0  0  0  0
 14 11  1  0  0  0  0
 14 28  1  0  0  0  0
 14 29  1  0  0  0  0
 15 11  2  0  0  0  0
 16  5  1  0  0  0  0
 16 30  1  0  0  0  0
 16 31  1  0  0  0  0
 16 32  1  0  0  0  0
 17  4  1  0  0  0  0
 17 33  1  0  0  0  0
 17 34  1  0  0  0  0
 17 35  1  0  0  0  0
 18 13  1  0  0  0  0
 19 10  1  0  0  0  0
 19 36  1  0  0  0  0
 19 37  1  0  0  0  0
 19 38  1  0  0  0  0
 20 18  2  0  0  0  0
 20 39  1  0  0  0  0
 21 18  1  0  0  0  0
 21 40  1  0  0  0  0
 22 21  2  0  0  0  0
 22 41  1  0  0  0  0
 23 20  1  0  0  0  0
 23 42  1  0  0  0  0
 24 22  1  0  0  0  0
 24 23  2  0  0  0  0
 24 43  1  0  0  0  0
M  END
>  <Mol_ID>
8796

>  <Formula>
C17H19N5OS

>  <MolWeight>
341.43066

>  <Cat>
P3060

>  <Name>
WAY-638924

>  <Synonyms>
N/A

>  <Target>
Others

>  <Form>
free base

>  <CAS>
796093-87-3

>  <URL>
N/A

$$$$
