WAY-324741
 OpenBabel08302521423D

 50 51  0  0  0  0  0  0  0  0999 V2000
    0.9258   -1.4533    0.2383 C   0  0  0  0  0  0  0  0  0  0  0  0
   -0.4340   -1.7515    0.0939 C   0  0  0  0  0  0  0  0  0  0  0  0
    1.1495    0.1518    0.7312 S   0  0  0  0  0  0  0  0  0  0  0  0
   -1.2399   -0.5213    0.1278 C   0  0  0  0  0  0  0  0  0  0  0  0
    2.0317   -2.2957    0.0622 N   0  0  0  0  0  0  0  0  0  0  0  0
   -0.4336    0.5906    0.3057 C   0  0  0  0  0  0  0  0  0  0  0  0
    3.3534   -1.8811    0.0556 C   0  0  0  0  0  0  0  0  0  0  0  0
   -0.9192   -3.1126   -0.1512 C   0  0  0  0  0  0  0  0  0  0  0  0
    4.3964   -3.0153   -0.1354 C   0  0  3  0  0  0  0  0  0  0  0  0
    5.7391   -2.5502    0.4911 C   0  0  3  0  0  0  0  0  0  0  0  0
    5.5882   -2.5059    1.9961 C   0  0  0  0  0  0  0  0  0  0  0  0
    3.7620   -0.7215    0.1428 O   0  0  0  0  0  0  0  0  0  0  0  0
   -0.1648   -4.0759   -0.2383 O   0  0  0  0  0  0  0  0  0  0  0  0
    4.8623   -3.2198    2.6686 O   0  0  0  0  0  0  0  0  0  0  0  0
    6.3804   -1.5939    2.5819 O   0  0  0  0  0  0  0  0  0  0  0  0
   -2.2728   -3.1921   -0.2934 O   0  0  0  0  0  0  0  0  0  0  0  0
   -2.7210   -0.4439   -0.0985 C   0  0  0  0  0  0  0  0  0  0  0  0
   -0.7683    2.0391    0.1733 C   0  0  0  0  0  0  0  0  0  0  0  0
    4.5390   -3.3728   -1.6276 C   0  0  0  0  0  0  0  0  0  0  0  0
    6.9209   -3.4480    0.1371 C   0  0  0  0  0  0  0  0  0  0  0  0
   -2.7807   -4.4980   -0.6029 C   0  0  0  0  0  0  0  0  0  0  0  0
   -4.2866   -4.4098   -0.8262 C   0  0  0  0  0  0  0  0  0  0  0  0
    5.7937   -4.1785   -1.9706 C   0  0  0  0  0  0  0  0  0  0  0  0
    7.0617   -3.5889   -1.3702 C   0  0  0  0  0  0  0  0  0  0  0  0
   -4.8758   -5.7741   -1.1556 C   0  0  0  0  0  0  0  0  0  0  0  0
    1.8178   -3.2685   -0.1640 H   0  0  0  0  0  0  0  0  0  0  0  0
    4.0347   -3.9056    0.3975 H   0  0  0  0  0  0  0  0  0  0  0  0
    5.9747   -1.5308    0.1466 H   0  0  0  0  0  0  0  0  0  0  0  0
    6.1334   -1.6402    3.5279 H   0  0  0  0  0  0  0  0  0  0  0  0
   -2.9899   -0.8929   -1.0597 H   0  0  0  0  0  0  0  0  0  0  0  0
   -3.2593   -0.9586    0.7043 H   0  0  0  0  0  0  0  0  0  0  0  0
   -3.0797    0.5898   -0.1168 H   0  0  0  0  0  0  0  0  0  0  0  0
   -1.2952    2.2081   -0.7731 H   0  0  0  0  0  0  0  0  0  0  0  0
   -1.4041    2.3806    0.9952 H   0  0  0  0  0  0  0  0  0  0  0  0
    0.1303    2.6660    0.1484 H   0  0  0  0  0  0  0  0  0  0  0  0
    3.6591   -3.9509   -1.9399 H   0  0  0  0  0  0  0  0  0  0  0  0
    4.5258   -2.4584   -2.2336 H   0  0  0  0  0  0  0  0  0  0  0  0
    7.8535   -3.0317    0.5533 H   0  0  0  0  0  0  0  0  0  0  0  0
    6.7959   -4.4368    0.5924 H   0  0  0  0  0  0  0  0  0  0  0  0
   -2.2946   -4.8694   -1.5099 H   0  0  0  0  0  0  0  0  0  0  0  0
   -2.5654   -5.1727    0.2329 H   0  0  0  0  0  0  0  0  0  0  0  0
   -4.7755   -3.9990    0.0639 H   0  0  0  0  0  0  0  0  0  0  0  0
   -4.5042   -3.7070   -1.6403 H   0  0  0  0  0  0  0  0  0  0  0  0
    5.9031   -4.2377   -3.0598 H   0  0  0  0  0  0  0  0  0  0  0  0
    5.6753   -5.2082   -1.6117 H   0  0  0  0  0  0  0  0  0  0  0  0
    7.2749   -2.6124   -1.8224 H   0  0  0  0  0  0  0  0  0  0  0  0
    7.9177   -4.2373   -1.6008 H   0  0  0  0  0  0  0  0  0  0  0  0
   -4.4376   -6.1772   -2.0741 H   0  0  0  0  0  0  0  0  0  0  0  0
   -4.6874   -6.4855   -0.3455 H   0  0  0  0  0  0  0  0  0  0  0  0
   -5.9587   -5.7026   -1.2994 H   0  0  0  0  0  0  0  0  0  0  0  0
  2  1  2  0  0  0  0
  3  1  1  0  0  0  0
  4  2  1  0  0  0  0
  5  1  1  0  0  0  0
  5 26  1  0  0  0  0
  6  3  1  0  0  0  0
  6  4  2  0  0  0  0
  7  5  1  0  0  0  0
  8  2  1  0  0  0  0
  9  7  1  0  0  0  0
  9 27  1  0  0  0  0
 10  9  1  0  0  0  0
 10 28  1  0  0  0  0
 11 10  1  0  0  0  0
 12  7  2  0  0  0  0
 13  8  2  0  0  0  0
 14 11  2  0  0  0  0
 15 11  1  0  0  0  0
 15 29  1  0  0  0  0
 16  8  1  0  0  0  0
 17  4  1  0  0  0  0
 17 30  1  0  0  0  0
 17 31  1  0  0  0  0
 17 32  1  0  0  0  0
 18  6  1  0  0  0  0
 18 33  1  0  0  0  0
 18 34  1  0  0  0  0
 18 35  1  0  0  0  0
 19  9  1  0  0  0  0
 19 36  1  0  0  0  0
 19 37  1  0  0  0  0
 20 10  1  0  0  0  0
 20 24  1  0  0  0  0
 20 38  1  0  0  0  0
 20 39  1  0  0  0  0
 21 16  1  0  0  0  0
 21 40  1  0  0  0  0
 21 41  1  0  0  0  0
 22 21  1  0  0  0  0
 22 42  1  0  0  0  0
 22 43  1  0  0  0  0
 23 19  1  0  0  0  0
 23 44  1  0  0  0  0
 23 45  1  0  0  0  0
 24 23  1  0  0  0  0
 24 46  1  0  0  0  0
 24 47  1  0  0  0  0
 25 22  1  0  0  0  0
 25 48  1  0  0  0  0
 25 49  1  0  0  0  0
 25 50  1  0  0  0  0
M  END
>  <Mol_ID>
8626

>  <Formula>
C18H25NO5S

>  <MolWeight>
367.4598

>  <Cat>
P2348

>  <Name>
WAY-324741

>  <Synonyms>
N/A

>  <Target>
Anti-infection

>  <Form>
free base

>  <CAS>
445005-58-3

>  <URL>
N/A

$$$$
