WAY-622216
 OpenBabel08302521443D

 54 58  0  0  0  0  0  0  0  0999 V2000
    0.2536    0.4566    0.2264 C   0  0  0  0  0  0  0  0  0  0  0  0
    0.2960   -0.8614    0.6070 C   0  0  0  0  0  0  0  0  0  0  0  0
   -0.7006   -1.5694    1.2192 N   0  0  0  0  0  0  0  0  0  0  0  0
   -1.0806    1.0657    0.1702 C   0  0  0  0  0  0  0  0  0  0  0  0
   -2.1164    0.1563    0.4062 N   0  0  0  0  0  0  0  0  0  0  0  0
   -1.8496   -0.9726    1.1903 C   0  0  0  0  0  0  0  0  0  0  0  0
   -0.3688   -2.8139    4.3299 N   0  0  0  0  0  0  0  0  0  0  0  0
    1.5658    1.0188    0.0109 C   0  0  0  0  0  0  0  0  0  0  0  0
    1.8301   -1.5448    0.3271 S   0  0  0  0  0  0  0  0  0  0  0  0
    2.4989   -0.0079   -0.0122 C   0  0  0  0  0  0  0  0  0  0  0  0
    0.2954   -1.2917    6.6089 N   0  0  0  0  0  0  0  0  0  0  0  0
    0.4733   -3.3593    5.3735 C   0  0  0  0  0  0  0  0  0  0  0  0
   -1.6741   -3.3175    4.2195 C   0  0  0  0  0  0  0  0  0  0  0  0
    0.0557   -0.5965    5.4571 C   0  0  0  0  0  0  0  0  0  0  0  0
    0.6413   -2.6445    6.5685 C   0  0  0  0  0  0  0  0  0  0  0  0
   -3.0820   -1.4348    2.3534 S   0  0  0  0  0  0  0  0  0  0  0  0
   -0.1201   -1.3872    4.1656 C   0  0  0  0  0  0  0  0  0  0  0  0
   -1.2633    2.2521   -0.0505 O   0  0  0  0  0  0  0  0  0  0  0  0
   -2.6255   -3.0385    3.0245 C   0  0  0  0  0  0  0  0  0  0  0  0
    2.0020    2.4183   -0.1505 C   0  0  0  0  0  0  0  0  0  0  0  0
    0.0780    0.6367    5.4625 O   0  0  0  0  0  0  0  0  0  0  0  0
   -2.0690   -4.1773    5.0278 O   0  0  0  0  0  0  0  0  0  0  0  0
   -3.4515    0.5861   -0.0023 C   0  0  0  0  0  0  0  0  0  0  0  0
   -4.2094   -0.4696   -0.7794 C   0  0  0  0  0  0  0  0  0  0  0  0
   -3.7458   -1.3909   -1.6346 C   0  0  0  0  0  0  0  0  0  0  0  0
    1.2479   -4.5021    5.1868 C   0  0  0  0  0  0  0  0  0  0  0  0
    1.3000   -3.1992    7.6680 C   0  0  0  0  0  0  0  0  0  0  0  0
    1.4241    3.4505    0.6070 C   0  0  0  0  0  0  0  0  0  0  0  0
    3.0573    2.7603   -1.0155 C   0  0  0  0  0  0  0  0  0  0  0  0
    2.0489   -4.9842    6.2382 C   0  0  0  0  0  0  0  0  0  0  0  0
    2.0048   -4.3847    7.4997 C   0  0  0  0  0  0  0  0  0  0  0  0
    3.4874    4.0865   -1.1506 C   0  0  0  0  0  0  0  0  0  0  0  0
    1.8416    4.7806    0.4596 C   0  0  0  0  0  0  0  0  0  0  0  0
    2.8690    5.0986   -0.4235 C   0  0  0  0  0  0  0  0  0  0  0  0
    3.5656    0.0586   -0.1822 H   0  0  0  0  0  0  0  0  0  0  0  0
    0.5335   -0.7342    7.4181 H   0  0  0  0  0  0  0  0  0  0  0  0
    0.7902   -1.2906    3.5674 H   0  0  0  0  0  0  0  0  0  0  0  0
   -0.9481   -0.9031    3.6693 H   0  0  0  0  0  0  0  0  0  0  0  0
   -3.6036   -3.3178    3.4543 H   0  0  0  0  0  0  0  0  0  0  0  0
   -2.4559   -3.7720    2.2326 H   0  0  0  0  0  0  0  0  0  0  0  0
   -4.0147    0.8725    0.8921 H   0  0  0  0  0  0  0  0  0  0  0  0
   -3.3972    1.4715   -0.6481 H   0  0  0  0  0  0  0  0  0  0  0  0
   -5.2893   -0.4528   -0.6067 H   0  0  0  0  0  0  0  0  0  0  0  0
   -2.6960   -1.4787   -1.9008 H   0  0  0  0  0  0  0  0  0  0  0  0
   -4.4323   -2.0839   -2.1209 H   0  0  0  0  0  0  0  0  0  0  0  0
    1.3071   -4.9774    4.2120 H   0  0  0  0  0  0  0  0  0  0  0  0
    1.3348   -2.6841    8.6238 H   0  0  0  0  0  0  0  0  0  0  0  0
    0.6374    3.2416    1.3280 H   0  0  0  0  0  0  0  0  0  0  0  0
    3.5630    1.9991   -1.6037 H   0  0  0  0  0  0  0  0  0  0  0  0
    2.7188   -5.8262    6.0753 H   0  0  0  0  0  0  0  0  0  0  0  0
    2.5701   -4.8037    8.3305 H   0  0  0  0  0  0  0  0  0  0  0  0
    4.3030    4.3270   -1.8275 H   0  0  0  0  0  0  0  0  0  0  0  0
    1.3602    5.5668    1.0368 H   0  0  0  0  0  0  0  0  0  0  0  0
    3.1882    6.1318   -0.5422 H   0  0  0  0  0  0  0  0  0  0  0  0
  2  1  2  0  0  0  0
  3  2  1  0  0  0  0
  4  1  1  0  0  0  0
  5  4  1  0  0  0  0
  6  5  1  0  0  0  0
  6  3  2  0  0  0  0
  7 13  1  0  0  0  0
  8  1  1  0  0  0  0
  9  2  1  0  0  0  0
  9 10  1  0  0  0  0
 10  8  2  0  0  0  0
 10 35  1  0  0  0  0
 11 14  1  0  0  0  0
 11 36  1  0  0  0  0
 12  7  1  0  0  0  0
 13 19  1  0  0  0  0
 14 17  1  0  0  0  0
 15 12  2  0  0  0  0
 15 11  1  0  0  0  0
 16  6  1  0  0  0  0
 17  7  1  0  0  0  0
 17 37  1  0  0  0  0
 17 38  1  0  0  0  0
 18  4  2  0  0  0  0
 19 16  1  0  0  0  0
 19 39  1  0  0  0  0
 19 40  1  0  0  0  0
 20  8  1  0  0  0  0
 21 14  2  0  0  0  0
 22 13  2  0  0  0  0
 23  5  1  0  0  0  0
 23 41  1  0  0  0  0
 23 42  1  0  0  0  0
 24 23  1  0  0  0  0
 24 43  1  0  0  0  0
 25 24  2  0  0  0  0
 25 44  1  0  0  0  0
 25 45  1  0  0  0  0
 26 12  1  0  0  0  0
 26 46  1  0  0  0  0
 27 15  1  0  0  0  0
 27 31  2  0  0  0  0
 27 47  1  0  0  0  0
 28 20  2  0  0  0  0
 28 48  1  0  0  0  0
 29 20  1  0  0  0  0
 29 49  1  0  0  0  0
 30 26  2  0  0  0  0
 30 50  1  0  0  0  0
 31 30  1  0  0  0  0
 31 51  1  0  0  0  0
 32 29  2  0  0  0  0
 32 52  1  0  0  0  0
 33 28  1  0  0  0  0
 33 34  2  0  0  0  0
 33 53  1  0  0  0  0
 34 32  1  0  0  0  0
 34 54  1  0  0  0  0
M  END
>  <Mol_ID>
9073

>  <Formula>
C25H20N4O3S2

>  <MolWeight>
488.5813

>  <Cat>
P2994

>  <Name>
WAY-622216

>  <Synonyms>
N/A

>  <Target>
Anti-infection

>  <Form>
free base

>  <CAS>
556050-16-9

>  <URL>
N/A

$$$$
