WAY-607792
 OpenBabel08302521433D

 50 54  0  0  0  0  0  0  0  0999 V2000
   -0.4232    1.1514    0.2687 C   0  0  0  0  0  0  0  0  0  0  0  0
   -0.7228    2.5675   -0.1115 C   0  0  3  0  0  0  0  0  0  0  0  0
   -2.0966    2.9619   -0.3645 N   0  0  0  0  0  0  0  0  0  0  0  0
    0.8291   -0.7182    0.7610 N   0  0  0  0  0  0  0  0  0  0  0  0
    0.8963    0.5889    0.4585 C   0  0  0  0  0  0  0  0  0  0  0  0
   -0.4923   -1.0303    0.7176 N   0  0  0  0  0  0  0  0  0  0  0  0
   -1.2649    0.0971    0.5594 C   0  0  0  0  0  0  0  0  0  0  0  0
   -0.1836    3.7162    1.1964 S   0  0  0  0  0  0  0  0  0  0  0  0
   -2.3083    4.3371   -0.2190 C   0  0  0  0  0  0  0  0  0  0  0  0
   -2.9643    2.2504   -1.2949 C   0  0  0  0  0  0  0  0  0  0  0  0
   -1.1785    5.0353    0.5094 C   0  0  0  0  0  0  0  0  0  0  0  0
   -0.9515   -2.3765    0.8456 C   0  0  0  0  0  0  0  0  0  0  0  0
    2.1815    1.3176    0.4289 C   0  0  0  0  0  0  0  0  0  0  0  0
   -3.2926    4.9365   -0.6637 O   0  0  0  0  0  0  0  0  0  0  0  0
   -1.4412    1.7244   -3.1554 N   0  0  0  0  0  0  0  0  0  0  0  0
   -2.5893    2.3327   -2.7627 C   0  0  0  0  0  0  0  0  0  0  0  0
   -1.2189    1.6196   -4.4881 C   0  0  0  0  0  0  0  0  0  0  0  0
   -0.0244   -3.4232    0.9758 C   0  0  0  0  0  0  0  0  0  0  0  0
   -2.3225   -2.6824    0.8356 C   0  0  0  0  0  0  0  0  0  0  0  0
    2.4186    2.3057   -0.5394 C   0  0  0  0  0  0  0  0  0  0  0  0
    3.1287    1.1552    1.4501 C   0  0  0  0  0  0  0  0  0  0  0  0
   -3.4875    2.8843   -3.6796 C   0  0  0  0  0  0  0  0  0  0  0  0
   -2.0832    2.0976   -5.4580 C   0  0  0  0  0  0  0  0  0  0  0  0
    4.2276    2.0209    1.5438 C   0  0  0  0  0  0  0  0  0  0  0  0
   -0.4663   -4.7392    1.1526 C   0  0  0  0  0  0  0  0  0  0  0  0
   -2.7564   -4.0014    1.0041 C   0  0  0  0  0  0  0  0  0  0  0  0
    3.4752    3.2081   -0.4112 C   0  0  0  0  0  0  0  0  0  0  0  0
   -3.2310    2.7573   -5.0421 C   0  0  0  0  0  0  0  0  0  0  0  0
    4.3785    3.0691    0.6352 C   0  0  0  0  0  0  0  0  0  0  0  0
   -1.8302   -5.0266    1.1819 C   0  0  0  0  0  0  0  0  0  0  0  0
   -0.1881    2.8199   -1.0293 H   0  0  0  0  0  0  0  0  0  0  0  0
   -2.3407    0.0517    0.6155 H   0  0  0  0  0  0  0  0  0  0  0  0
   -3.0287    1.1964   -1.0241 H   0  0  0  0  0  0  0  0  0  0  0  0
   -3.9798    2.6432   -1.1638 H   0  0  0  0  0  0  0  0  0  0  0  0
   -1.5593    5.6798    1.3015 H   0  0  0  0  0  0  0  0  0  0  0  0
   -0.5853    5.6130   -0.2057 H   0  0  0  0  0  0  0  0  0  0  0  0
   -0.3052    1.1043   -4.7658 H   0  0  0  0  0  0  0  0  0  0  0  0
    1.0456   -3.2284    0.9425 H   0  0  0  0  0  0  0  0  0  0  0  0
   -3.0848   -1.9213    0.7019 H   0  0  0  0  0  0  0  0  0  0  0  0
    1.7545    2.4228   -1.3884 H   0  0  0  0  0  0  0  0  0  0  0  0
    2.9963    0.3820    2.2036 H   0  0  0  0  0  0  0  0  0  0  0  0
   -4.3946    3.3777   -3.3432 H   0  0  0  0  0  0  0  0  0  0  0  0
   -1.8756    1.9481   -6.5120 H   0  0  0  0  0  0  0  0  0  0  0  0
    4.9484    1.9008    2.3473 H   0  0  0  0  0  0  0  0  0  0  0  0
    0.2582   -5.5412    1.2763 H   0  0  0  0  0  0  0  0  0  0  0  0
   -3.8178   -4.2268    1.0120 H   0  0  0  0  0  0  0  0  0  0  0  0
    3.5726    4.0288   -1.1171 H   0  0  0  0  0  0  0  0  0  0  0  0
   -3.9347    3.1503   -5.7699 H   0  0  0  0  0  0  0  0  0  0  0  0
    5.1976    3.7762    0.7406 H   0  0  0  0  0  0  0  0  0  0  0  0
   -2.1719   -6.0462    1.3424 H   0  0  0  0  0  0  0  0  0  0  0  0
  2  1  1  0  0  0  0
  2 31  1  0  0  0  0
  3  2  1  0  0  0  0
  4  5  2  0  0  0  0
  4  6  1  0  0  0  0
  5  1  1  0  0  0  0
  6  7  1  0  0  0  0
  7  1  2  0  0  0  0
  7 32  1  0  0  0  0
  8  2  1  0  0  0  0
  9  3  1  0  0  0  0
 10  3  1  0  0  0  0
 10 33  1  0  0  0  0
 10 34  1  0  0  0  0
 11  8  1  0  0  0  0
 11  9  1  0  0  0  0
 11 35  1  0  0  0  0
 11 36  1  0  0  0  0
 12  6  1  0  0  0  0
 13  5  1  0  0  0  0
 14  9  2  0  0  0  0
 15 16  2  0  0  0  0
 16 10  1  0  0  0  0
 17 15  1  0  0  0  0
 17 37  1  0  0  0  0
 18 12  2  0  0  0  0
 18 38  1  0  0  0  0
 19 12  1  0  0  0  0
 19 39  1  0  0  0  0
 20 13  2  0  0  0  0
 20 40  1  0  0  0  0
 21 13  1  0  0  0  0
 21 41  1  0  0  0  0
 22 16  1  0  0  0  0
 22 42  1  0  0  0  0
 23 28  1  0  0  0  0
 23 17  2  0  0  0  0
 23 43  1  0  0  0  0
 24 21  2  0  0  0  0
 24 44  1  0  0  0  0
 25 18  1  0  0  0  0
 25 45  1  0  0  0  0
 26 19  2  0  0  0  0
 26 46  1  0  0  0  0
 27 20  1  0  0  0  0
 27 47  1  0  0  0  0
 28 22  2  0  0  0  0
 28 48  1  0  0  0  0
 29 24  1  0  0  0  0
 29 27  2  0  0  0  0
 29 49  1  0  0  0  0
 30 26  1  0  0  0  0
 30 25  2  0  0  0  0
 30 50  1  0  0  0  0
M  END
>  <Mol_ID>
8753

>  <Formula>
C24H20N4OS

>  <MolWeight>
412.5068

>  <Cat>
P2900

>  <Name>
WAY-607792

>  <Synonyms>
N/A

>  <Target>
hepatitis B

>  <Form>
free base

>  <CAS>
881665-37-8

>  <URL>
N/A

$$$$
