WAY-638774
 OpenBabel08302521433D

 48 51  0  0  0  0  0  0  0  0999 V2000
    1.2941    0.0463    0.1137 S   0  0  0  0  0  0  0  0  0  0  0  0
   -1.8621   -4.1778   -1.4096 S   0  0  0  0  0  0  0  0  0  0  0  0
    0.7238   -1.4422   -0.4019 N   0  0  0  0  0  0  0  0  0  0  0  0
   -0.1715   -4.0400   -1.3181 N   0  0  0  0  0  0  0  0  0  0  0  0
    3.0402   -0.2829    0.1868 C   0  0  0  0  0  0  0  0  0  0  0  0
   -2.1062   -5.0356   -2.9485 C   0  0  0  0  0  0  0  0  0  0  0  0
    3.8197   -0.1408   -0.9663 C   0  0  0  0  0  0  0  0  0  0  0  0
    5.1982   -0.3231   -0.8815 C   0  0  0  0  0  0  0  0  0  0  0  0
    0.2667   -2.4419    0.5851 C   0  0  0  0  0  0  0  0  0  0  0  0
    0.3938   -3.8760    0.0553 C   0  0  0  0  0  0  0  0  0  0  0  0
    0.3633   -1.6259   -1.8215 C   0  0  0  0  0  0  0  0  0  0  0  0
    0.4924   -3.0911   -2.2605 C   0  0  0  0  0  0  0  0  0  0  0  0
    0.8393    0.2747    1.4695 O   0  0  0  0  0  0  0  0  0  0  0  0
   -2.3042   -5.0770   -0.3607 O   0  0  0  0  0  0  0  0  0  0  0  0
   -2.4202   -2.8475   -1.5372 O   0  0  0  0  0  0  0  0  0  0  0  0
    1.0872    1.0223   -0.9330 O   0  0  0  0  0  0  0  0  0  0  0  0
   -1.4989   -6.2811   -3.1256 C   0  0  0  0  0  0  0  0  0  0  0  0
    5.7925   -0.6127    0.3531 C   0  0  0  0  0  0  0  0  0  0  0  0
    5.9147   -0.1733   -2.0413 O   0  0  0  0  0  0  0  0  0  0  0  0
    3.6256   -0.6130    1.4138 C   0  0  0  0  0  0  0  0  0  0  0  0
    7.1489   -0.7259    0.5230 O   0  0  0  0  0  0  0  0  0  0  0  0
    5.0068   -0.7847    1.4915 C   0  0  0  0  0  0  0  0  0  0  0  0
   -1.6700   -6.9468   -4.3327 C   0  0  0  0  0  0  0  0  0  0  0  0
   -1.0791   -8.1342   -4.5201 F   0  0  0  0  0  0  0  0  0  0  0  0
   -2.9021   -4.4803   -3.9575 C   0  0  0  0  0  0  0  0  0  0  0  0
   -3.0701   -5.1677   -5.1629 C   0  0  0  0  0  0  0  0  0  0  0  0
    7.2768   -0.5965   -1.8883 C   0  0  0  0  0  0  0  0  0  0  0  0
    7.8482   -0.1124   -0.5661 C   0  0  0  0  0  0  0  0  0  0  0  0
   -2.4432   -6.3998   -5.3533 C   0  0  0  0  0  0  0  0  0  0  0  0
    3.3670    0.1246   -1.9183 H   0  0  0  0  0  0  0  0  0  0  0  0
    0.8865   -2.3749    1.4882 H   0  0  0  0  0  0  0  0  0  0  0  0
   -0.7675   -2.2292    0.8743 H   0  0  0  0  0  0  0  0  0  0  0  0
    1.4559   -4.1533    0.0059 H   0  0  0  0  0  0  0  0  0  0  0  0
   -0.0637   -4.5874    0.7505 H   0  0  0  0  0  0  0  0  0  0  0  0
   -0.6462   -1.2425   -1.9923 H   0  0  0  0  0  0  0  0  0  0  0  0
    1.0401   -1.0392   -2.4528 H   0  0  0  0  0  0  0  0  0  0  0  0
    1.5577   -3.3582   -2.2921 H   0  0  0  0  0  0  0  0  0  0  0  0
    0.1167   -3.2258   -3.2791 H   0  0  0  0  0  0  0  0  0  0  0  0
   -0.9032   -6.7363   -2.3388 H   0  0  0  0  0  0  0  0  0  0  0  0
    3.0205   -0.7108    2.3125 H   0  0  0  0  0  0  0  0  0  0  0  0
    5.4757   -1.0165    2.4441 H   0  0  0  0  0  0  0  0  0  0  0  0
   -3.4040   -3.5250   -3.8100 H   0  0  0  0  0  0  0  0  0  0  0  0
   -3.6915   -4.7470   -5.9498 H   0  0  0  0  0  0  0  0  0  0  0  0
    7.8500   -0.1809   -2.7230 H   0  0  0  0  0  0  0  0  0  0  0  0
    7.3104   -1.6906   -1.9601 H   0  0  0  0  0  0  0  0  0  0  0  0
    8.9038   -0.3882   -0.4806 H   0  0  0  0  0  0  0  0  0  0  0  0
    7.7712    0.9778   -0.4668 H   0  0  0  0  0  0  0  0  0  0  0  0
   -2.5584   -6.9426   -6.2882 H   0  0  0  0  0  0  0  0  0  0  0  0
  2  4  1  0  0  0  0
  3  1  1  0  0  0  0
  4 12  1  0  0  0  0
  5  1  1  0  0  0  0
  6  2  1  0  0  0  0
  7  5  2  0  0  0  0
  7 30  1  0  0  0  0
  8  7  1  0  0  0  0
  9  3  1  0  0  0  0
  9 31  1  0  0  0  0
  9 32  1  0  0  0  0
 10  9  1  0  0  0  0
 10  4  1  0  0  0  0
 10 33  1  0  0  0  0
 10 34  1  0  0  0  0
 11  3  1  0  0  0  0
 11 35  1  0  0  0  0
 11 36  1  0  0  0  0
 12 11  1  0  0  0  0
 12 37  1  0  0  0  0
 12 38  1  0  0  0  0
 13  1  2  0  0  0  0
 14  2  2  0  0  0  0
 15  2  2  0  0  0  0
 16  1  2  0  0  0  0
 17  6  2  0  0  0  0
 17 39  1  0  0  0  0
 18 22  1  0  0  0  0
 18  8  2  0  0  0  0
 19  8  1  0  0  0  0
 20  5  1  0  0  0  0
 20 40  1  0  0  0  0
 21 18  1  0  0  0  0
 22 20  2  0  0  0  0
 22 41  1  0  0  0  0
 23 17  1  0  0  0  0
 24 23  1  0  0  0  0
 25  6  1  0  0  0  0
 25 42  1  0  0  0  0
 26 25  2  0  0  0  0
 26 43  1  0  0  0  0
 27 19  1  0  0  0  0
 27 28  1  0  0  0  0
 27 44  1  0  0  0  0
 27 45  1  0  0  0  0
 28 21  1  0  0  0  0
 28 46  1  0  0  0  0
 28 47  1  0  0  0  0
 29 26  1  0  0  0  0
 29 23  2  0  0  0  0
 29 48  1  0  0  0  0
M  END
>  <Mol_ID>
8788

>  <Formula>
C18H19FN2O6S2

>  <MolWeight>
442.4816632

>  <Cat>
P3052

>  <Name>
WAY-638774

>  <Synonyms>
N/A

>  <Target>
pyruvate kinase M2

>  <Form>
free base

>  <CAS>
796092-26-7

>  <URL>
N/A

$$$$
