WAY-620152
 OpenBabel08302521433D

 47 50  0  0  0  0  0  0  0  0999 V2000
   -1.1904   -1.4615    0.1349 C   0  0  0  0  0  0  0  0  0  0  0  0
   -1.3829   -2.9471    0.1073 C   0  0  0  0  0  0  0  0  0  0  0  0
   -1.0978    1.3177    0.0429 N   0  0  0  0  0  0  0  0  0  0  0  0
   -2.6651   -3.5043   -0.0640 N   0  0  0  0  0  0  0  0  0  0  0  0
   -2.0533    0.6734    0.7426 C   0  0  0  0  0  0  0  0  0  0  0  0
   -2.0654   -0.6957    0.9000 C   0  0  0  0  0  0  0  0  0  0  0  0
   -0.1309   -0.8182   -0.5672 C   0  0  0  0  0  0  0  0  0  0  0  0
   -3.1345    1.5158    1.2324 C   0  0  0  0  0  0  0  0  0  0  0  0
   -0.1326    0.5958   -0.5427 C   0  0  0  0  0  0  0  0  0  0  0  0
   -5.4916   -4.9412   -2.9455 C   0  0  0  0  0  0  0  0  0  0  0  0
   -4.2250    0.8736    1.7579 O   0  0  0  0  0  0  0  0  0  0  0  0
   -0.3828   -3.6525    0.2221 O   0  0  0  0  0  0  0  0  0  0  0  0
   -3.9505   -2.8049   -0.1584 C   0  0  0  0  0  0  0  0  0  0  0  0
   -2.7784   -4.9612   -0.1739 C   0  0  0  0  0  0  0  0  0  0  0  0
   -4.8406   -4.6634   -1.6061 C   0  0  0  0  0  0  0  0  0  0  0  0
   -3.3608    2.8781    1.2338 C   0  0  0  0  0  0  0  0  0  0  0  0
   -5.1266    1.8282    2.1024 C   0  0  0  0  0  0  0  0  0  0  0  0
   -5.7732   -4.0929   -3.7798 O   0  0  0  0  0  0  0  0  0  0  0  0
   -4.6393    3.0790    1.8076 C   0  0  0  0  0  0  0  0  0  0  0  0
   -3.4772   -5.3531   -1.4784 C   0  0  0  0  0  0  0  0  0  0  0  0
   -4.6850   -3.1528   -1.4372 C   0  0  0  0  0  0  0  0  0  0  0  0
   -5.7747   -6.2695   -3.0686 O   0  0  0  0  0  0  0  0  0  0  0  0
    0.9278   -1.4637   -1.2631 C   0  0  0  0  0  0  0  0  0  0  0  0
    0.9001    1.2944   -1.1545 C   0  0  0  0  0  0  0  0  0  0  0  0
   -6.4448   -6.5894   -4.2884 C   0  0  0  0  0  0  0  0  0  0  0  0
    1.9679   -0.7376   -1.8489 C   0  0  0  0  0  0  0  0  0  0  0  0
    1.9564    0.6464   -1.7865 C   0  0  0  0  0  0  0  0  0  0  0  0
   -2.8005   -1.1616    1.5462 H   0  0  0  0  0  0  0  0  0  0  0  0
   -3.8602   -1.7251   -0.1531 H   0  0  0  0  0  0  0  0  0  0  0  0
   -4.5432   -3.0958    0.7191 H   0  0  0  0  0  0  0  0  0  0  0  0
   -3.3576   -5.3144    0.6884 H   0  0  0  0  0  0  0  0  0  0  0  0
   -1.7999   -5.4490   -0.1263 H   0  0  0  0  0  0  0  0  0  0  0  0
   -5.5195   -5.0309   -0.8250 H   0  0  0  0  0  0  0  0  0  0  0  0
   -2.6787    3.6248    0.8513 H   0  0  0  0  0  0  0  0  0  0  0  0
   -6.0492    1.4659    2.5342 H   0  0  0  0  0  0  0  0  0  0  0  0
   -5.1469    4.0181    1.9747 H   0  0  0  0  0  0  0  0  0  0  0  0
   -3.5942   -6.4421   -1.5182 H   0  0  0  0  0  0  0  0  0  0  0  0
   -2.8429   -5.0729   -2.3296 H   0  0  0  0  0  0  0  0  0  0  0  0
   -4.1265   -2.7339   -2.2848 H   0  0  0  0  0  0  0  0  0  0  0  0
   -5.6685   -2.6665   -1.4363 H   0  0  0  0  0  0  0  0  0  0  0  0
    0.9777   -2.5492   -1.3222 H   0  0  0  0  0  0  0  0  0  0  0  0
    0.8876    2.3837   -1.1167 H   0  0  0  0  0  0  0  0  0  0  0  0
   -7.4137   -6.0816   -4.3356 H   0  0  0  0  0  0  0  0  0  0  0  0
   -5.8242   -6.3178   -5.1488 H   0  0  0  0  0  0  0  0  0  0  0  0
   -6.6161   -7.6679   -4.3088 H   0  0  0  0  0  0  0  0  0  0  0  0
    2.7888   -1.2567   -2.3378 H   0  0  0  0  0  0  0  0  0  0  0  0
    2.7653    1.2260   -2.2252 H   0  0  0  0  0  0  0  0  0  0  0  0
  2  1  1  0  0  0  0
  3  9  2  0  0  0  0
  4  2  1  0  0  0  0
  5  6  2  0  0  0  0
  5  3  1  0  0  0  0
  6  1  1  0  0  0  0
  6 28  1  0  0  0  0
  7  1  2  0  0  0  0
  8  5  1  0  0  0  0
  9  7  1  0  0  0  0
 10 15  1  0  0  0  0
 11  8  1  0  0  0  0
 12  2  2  0  0  0  0
 13  4  1  0  0  0  0
 13 29  1  0  0  0  0
 13 30  1  0  0  0  0
 14  4  1  0  0  0  0
 14 31  1  0  0  0  0
 14 32  1  0  0  0  0
 15 20  1  0  0  0  0
 15 21  1  0  0  0  0
 15 33  1  0  0  0  0
 16  8  2  0  0  0  0
 16 34  1  0  0  0  0
 17 11  1  0  0  0  0
 17 35  1  0  0  0  0
 18 10  2  0  0  0  0
 19 16  1  0  0  0  0
 19 17  2  0  0  0  0
 19 36  1  0  0  0  0
 20 14  1  0  0  0  0
 20 37  1  0  0  0  0
 20 38  1  0  0  0  0
 21 13  1  0  0  0  0
 21 39  1  0  0  0  0
 21 40  1  0  0  0  0
 22 10  1  0  0  0  0
 23  7  1  0  0  0  0
 23 41  1  0  0  0  0
 24  9  1  0  0  0  0
 24 27  2  0  0  0  0
 24 42  1  0  0  0  0
 25 22  1  0  0  0  0
 25 43  1  0  0  0  0
 25 44  1  0  0  0  0
 25 45  1  0  0  0  0
 26 23  2  0  0  0  0
 26 46  1  0  0  0  0
 27 26  1  0  0  0  0
 27 47  1  0  0  0  0
M  END
>  <Mol_ID>
8763

>  <Formula>
C21H20N2O4

>  <MolWeight>
364.3945

>  <Cat>
P2933

>  <Name>
WAY-620152

>  <Synonyms>
N/A

>  <Target>
foreign DNA/Cytosine deaminase

>  <Form>
free base

>  <CAS>
732986-93-5

>  <URL>
N/A

$$$$
