WAY-348375
 OpenBabel08302521393D

 43 45  0  0  0  0  0  0  0  0999 V2000
    3.0168   -1.4018    1.6352 C   0  0  0  0  0  0  0  0  0  0  0  0
    1.7946   -1.0718    1.1308 N   0  0  0  0  0  0  0  0  0  0  0  0
    3.0733   -2.7045    1.7977 N   0  0  0  0  0  0  0  0  0  0  0  0
    4.2658    0.9042    0.8978 C   0  0  0  0  0  0  0  0  0  0  0  0
    1.8872   -3.2420    1.3369 N   0  0  0  0  0  0  0  0  0  0  0  0
    1.1291   -2.2488    0.9236 C   0  0  0  0  0  0  0  0  0  0  0  0
    4.1908   -0.2585    2.1865 S   0  0  0  0  0  0  0  0  0  0  0  0
    3.1057    1.8248    0.7361 C   0  0  0  0  0  0  0  0  0  0  0  0
    5.3503    1.1246    0.1291 C   0  0  0  0  0  0  0  0  0  0  0  0
    1.9420    1.5738    1.0082 O   0  0  0  0  0  0  0  0  0  0  0  0
    6.6268    0.4158    0.1615 C   0  0  0  0  0  0  0  0  0  0  0  0
   10.2194   -1.6869    0.1686 O   0  0  0  0  0  0  0  0  0  0  0  0
    3.4417    3.0285    0.2315 O   0  0  0  0  0  0  0  0  0  0  0  0
    9.0827   -0.9231    0.1839 C   0  0  0  0  0  0  0  0  0  0  0  0
   10.9395   -1.6934    1.4013 C   0  0  0  0  0  0  0  0  0  0  0  0
    6.8645   -0.6324   -0.7340 C   0  0  0  0  0  0  0  0  0  0  0  0
    7.6382    0.8258    1.0347 C   0  0  0  0  0  0  0  0  0  0  0  0
    8.8704    0.1637    1.0345 C   0  0  0  0  0  0  0  0  0  0  0  0
    8.0919   -1.2938   -0.7252 C   0  0  0  0  0  0  0  0  0  0  0  0
   11.7633   -2.9506    1.5022 C   0  0  0  0  0  0  0  0  0  0  0  0
   -0.2203   -2.3235    0.3250 C   0  0  0  0  0  0  0  0  0  0  0  0
   13.1069   -2.9592    1.1095 C   0  0  0  0  0  0  0  0  0  0  0  0
   11.1881   -4.1243    2.0087 C   0  0  0  0  0  0  0  0  0  0  0  0
   11.9548   -5.2792    2.1549 C   0  0  0  0  0  0  0  0  0  0  0  0
   13.8718   -4.1171    1.2540 C   0  0  0  0  0  0  0  0  0  0  0  0
   13.2987   -5.2738    1.7819 C   0  0  0  0  0  0  0  0  0  0  0  0
    1.4457   -0.1355    0.9723 H   0  0  0  0  0  0  0  0  0  0  0  0
    5.3433    1.9198   -0.6180 H   0  0  0  0  0  0  0  0  0  0  0  0
    2.6020    3.5345    0.1959 H   0  0  0  0  0  0  0  0  0  0  0  0
   11.5911   -0.8124    1.4470 H   0  0  0  0  0  0  0  0  0  0  0  0
   10.2652   -1.6698    2.2683 H   0  0  0  0  0  0  0  0  0  0  0  0
    6.0972   -0.9405   -1.4400 H   0  0  0  0  0  0  0  0  0  0  0  0
    7.4855    1.6558    1.7158 H   0  0  0  0  0  0  0  0  0  0  0  0
    9.6402    0.5174    1.7105 H   0  0  0  0  0  0  0  0  0  0  0  0
    8.2666   -2.1178   -1.4123 H   0  0  0  0  0  0  0  0  0  0  0  0
   -0.9513   -1.7838    0.9350 H   0  0  0  0  0  0  0  0  0  0  0  0
   -0.2159   -1.8863   -0.6785 H   0  0  0  0  0  0  0  0  0  0  0  0
   -0.5500   -3.3636    0.2384 H   0  0  0  0  0  0  0  0  0  0  0  0
   13.5653   -2.0637    0.6968 H   0  0  0  0  0  0  0  0  0  0  0  0
   10.1396   -4.1395    2.2996 H   0  0  0  0  0  0  0  0  0  0  0  0
   11.5046   -6.1814    2.5607 H   0  0  0  0  0  0  0  0  0  0  0  0
   14.9170   -4.1164    0.9579 H   0  0  0  0  0  0  0  0  0  0  0  0
   13.8965   -6.1719    1.8986 H   0  0  0  0  0  0  0  0  0  0  0  0
  2  1  1  0  0  0  0
  2 27  1  0  0  0  0
  3  1  2  0  0  0  0
  4  7  1  0  0  0  0
  5  3  1  0  0  0  0
  5  6  2  0  0  0  0
  6  2  1  0  0  0  0
  7  1  1  0  0  0  0
  8  4  1  0  0  0  0
  9  4  2  0  0  0  0
  9 28  1  0  0  0  0
 10  8  2  0  0  0  0
 11  9  1  0  0  0  0
 12 14  1  0  0  0  0
 13  8  1  0  0  0  0
 13 29  1  0  0  0  0
 14 18  1  0  0  0  0
 15 12  1  0  0  0  0
 15 30  1  0  0  0  0
 15 31  1  0  0  0  0
 16 11  2  0  0  0  0
 16 32  1  0  0  0  0
 17 11  1  0  0  0  0
 17 33  1  0  0  0  0
 18 17  2  0  0  0  0
 18 34  1  0  0  0  0
 19 16  1  0  0  0  0
 19 14  2  0  0  0  0
 19 35  1  0  0  0  0
 20 15  1  0  0  0  0
 21  6  1  0  0  0  0
 21 36  1  0  0  0  0
 21 37  1  0  0  0  0
 21 38  1  0  0  0  0
 22 20  2  0  0  0  0
 22 39  1  0  0  0  0
 23 20  1  0  0  0  0
 23 40  1  0  0  0  0
 24 23  2  0  0  0  0
 24 41  1  0  0  0  0
 25 22  1  0  0  0  0
 25 26  2  0  0  0  0
 25 42  1  0  0  0  0
 26 24  1  0  0  0  0
 26 43  1  0  0  0  0
M  END
>  <Mol_ID>
8047

>  <Formula>
C19H17N3O3S

>  <MolWeight>
367.42158

>  <Cat>
P2754

>  <Name>
WAY-348375

>  <Synonyms>
N/A

>  <Target>
ACE2

>  <Form>
free base

>  <CAS>
573705-08-5

>  <URL>
N/A

$$$$
