WAY-327527
 OpenBabel08302521443D

 40 43  0  0  0  0  0  0  0  0999 V2000
   -1.4749   -1.1542   -0.0220 C   0  0  0  0  0  0  0  0  0  0  0  0
   -2.3047   -0.0244   -0.0620 C   0  0  0  0  0  0  0  0  0  0  0  0
   -0.1875   -0.6332   -0.0290 N   0  0  0  0  0  0  0  0  0  0  0  0
   -1.5639    1.1399   -0.0843 N   0  0  0  0  0  0  0  0  0  0  0  0
   -0.3177    0.7357   -0.0683 C   0  0  0  0  0  0  0  0  0  0  0  0
   -3.7712    0.0052   -0.0840 C   0  0  0  0  0  0  0  0  0  0  0  0
   -1.8120   -2.4754    0.0820 N   0  0  0  0  0  0  0  0  0  0  0  0
    2.0653    1.0214   -0.0316 N   0  0  0  0  0  0  0  0  0  0  0  0
    1.0850   -1.1808    0.0344 C   0  0  0  0  0  0  0  0  0  0  0  0
   -4.5775   -0.9666   -0.7040 C   0  0  0  0  0  0  0  0  0  0  0  0
   -4.4226    1.0930    0.5239 C   0  0  0  0  0  0  0  0  0  0  0  0
    0.8685    1.5462   -0.0691 C   0  0  0  0  0  0  0  0  0  0  0  0
    2.1498   -0.3579    0.0254 C   0  0  0  0  0  0  0  0  0  0  0  0
   -5.9717   -0.8934   -0.6715 C   0  0  0  0  0  0  0  0  0  0  0  0
   -5.8198    1.1761    0.5345 C   0  0  0  0  0  0  0  0  0  0  0  0
   -1.1374   -3.6150   -0.5337 C   0  0  0  0  0  0  0  0  0  0  0  0
   -6.6004    0.1806   -0.0502 C   0  0  0  0  0  0  0  0  0  0  0  0
   -4.0932   -2.0319   -1.4098 O   0  0  0  0  0  0  0  0  0  0  0  0
   -6.6701    2.6601    1.3421 Br  0  0  0  0  0  0  0  0  0  0  0  0
   -0.9759   -3.4927   -2.0492 C   0  0  0  0  0  0  0  0  0  0  0  0
   -2.0054   -4.8669   -0.3636 C   0  0  0  0  0  0  0  0  0  0  0  0
   -1.5960   -5.7989   -1.4899 C   0  0  0  0  0  0  0  0  0  0  0  0
   -1.0836   -4.9077   -2.6126 C   0  0  0  0  0  0  0  0  0  0  0  0
   -2.7804   -2.6811    0.3506 H   0  0  0  0  0  0  0  0  0  0  0  0
    1.1905   -2.2514    0.1044 H   0  0  0  0  0  0  0  0  0  0  0  0
   -3.8347    1.8837    0.9875 H   0  0  0  0  0  0  0  0  0  0  0  0
    0.7605    2.6424   -0.1033 H   0  0  0  0  0  0  0  0  0  0  0  0
    3.1575   -0.7657    0.0803 H   0  0  0  0  0  0  0  0  0  0  0  0
   -6.5642   -1.6679   -1.1519 H   0  0  0  0  0  0  0  0  0  0  0  0
   -0.1719   -3.8083   -0.0569 H   0  0  0  0  0  0  0  0  0  0  0  0
   -7.6824    0.2374   -0.0418 H   0  0  0  0  0  0  0  0  0  0  0  0
   -3.1343   -1.9010   -1.5004 H   0  0  0  0  0  0  0  0  0  0  0  0
   -1.7486   -2.8720   -2.5108 H   0  0  0  0  0  0  0  0  0  0  0  0
   -0.0165   -3.0354   -2.3136 H   0  0  0  0  0  0  0  0  0  0  0  0
   -1.8547   -5.3295    0.6182 H   0  0  0  0  0  0  0  0  0  0  0  0
   -3.0741   -4.6356   -0.4507 H   0  0  0  0  0  0  0  0  0  0  0  0
   -2.4379   -6.4182   -1.8174 H   0  0  0  0  0  0  0  0  0  0  0  0
   -0.8025   -6.4765   -1.1565 H   0  0  0  0  0  0  0  0  0  0  0  0
   -1.7635   -4.9256   -3.4710 H   0  0  0  0  0  0  0  0  0  0  0  0
   -0.1101   -5.2649   -2.9679 H   0  0  0  0  0  0  0  0  0  0  0  0
  2  1  2  0  0  0  0
  3  1  1  0  0  0  0
  4  2  1  0  0  0  0
  4  5  2  0  0  0  0
  5  3  1  0  0  0  0
  6  2  1  0  0  0  0
  7  1  1  0  0  0  0
  7 24  1  0  0  0  0
  8 13  1  0  0  0  0
  9  3  1  0  0  0  0
  9 25  1  0  0  0  0
 10  6  2  0  0  0  0
 11  6  1  0  0  0  0
 11 26  1  0  0  0  0
 12  5  1  0  0  0  0
 12  8  2  0  0  0  0
 12 27  1  0  0  0  0
 13  9  2  0  0  0  0
 13 28  1  0  0  0  0
 14 10  1  0  0  0  0
 14 17  2  0  0  0  0
 14 29  1  0  0  0  0
 15 11  2  0  0  0  0
 16  7  1  0  0  0  0
 16 30  1  0  0  0  0
 17 15  1  0  0  0  0
 17 31  1  0  0  0  0
 18 10  1  0  0  0  0
 18 32  1  0  0  0  0
 19 15  1  0  0  0  0
 20 16  1  0  0  0  0
 20 33  1  0  0  0  0
 20 34  1  0  0  0  0
 21 16  1  0  0  0  0
 21 35  1  0  0  0  0
 21 36  1  0  0  0  0
 22 21  1  0  0  0  0
 22 37  1  0  0  0  0
 22 38  1  0  0  0  0
 23 20  1  0  0  0  0
 23 22  1  0  0  0  0
 23 39  1  0  0  0  0
 23 40  1  0  0  0  0
M  END
>  <Mol_ID>
8981

>  <Formula>
C17H17BrN4O

>  <MolWeight>
373.24708

>  <Cat>
P2544

>  <Name>
WAY-327527

>  <Synonyms>
N/A

>  <Target>
p38a

>  <Form>
free base

>  <CAS>
879592-80-0

>  <URL>
N/A

$$$$
