WAY-326352
 OpenBabel08302521433D

 39 41  0  0  0  0  0  0  0  0999 V2000
   -0.0165    0.7671   -0.0273 C   0  0  0  0  0  0  0  0  0  0  0  0
    2.4618    0.5842   -0.1870 N   0  0  0  0  0  0  0  0  0  0  0  0
    1.0672   -1.3809    0.1755 O   0  0  0  0  0  0  0  0  0  0  0  0
   -0.0673   -0.6239    0.0657 C   0  0  0  0  0  0  0  0  0  0  0  0
    1.3101    1.4811   -0.0430 C   0  0  0  0  0  0  0  0  0  0  0  0
    2.1813   -0.5986    0.6381 C   0  0  0  0  0  0  0  0  0  0  0  0
   -3.8268    2.9467    0.2794 C   0  0  0  0  0  0  0  0  0  0  0  0
   -3.6750    1.5675    0.1841 N   0  0  0  0  0  0  0  0  0  0  0  0
   -1.2071    1.5007   -0.0357 C   0  0  0  0  0  0  0  0  0  0  0  0
   -2.4494    0.8690    0.0525 C   0  0  0  0  0  0  0  0  0  0  0  0
   -2.9315    3.7877    0.2318 O   0  0  0  0  0  0  0  0  0  0  0  0
    2.7183    0.2083   -1.5882 C   0  0  0  0  0  0  0  0  0  0  0  0
   -1.2959   -1.2802    0.0399 C   0  0  0  0  0  0  0  0  0  0  0  0
    3.0697    1.3930   -2.4735 C   0  0  0  0  0  0  0  0  0  0  0  0
   -2.4846   -0.5315    0.0477 C   0  0  0  0  0  0  0  0  0  0  0  0
    3.6087    3.6528   -4.0557 C   0  0  0  0  0  0  0  0  0  0  0  0
    4.4119    3.3622   -2.9530 C   0  0  0  0  0  0  0  0  0  0  0  0
    2.5494    2.8100   -4.3833 C   0  0  0  0  0  0  0  0  0  0  0  0
    4.1541    2.2313   -2.1736 C   0  0  0  0  0  0  0  0  0  0  0  0
    2.2772    1.6904   -3.5946 C   0  0  0  0  0  0  0  0  0  0  0  0
   -5.2544    3.3939    0.4664 C   0  0  0  0  0  0  0  0  0  0  0  0
    1.4127    2.0123    0.9135 H   0  0  0  0  0  0  0  0  0  0  0  0
    1.3026    2.2612   -0.8139 H   0  0  0  0  0  0  0  0  0  0  0  0
    3.0576   -1.2545    0.6835 H   0  0  0  0  0  0  0  0  0  0  0  0
    1.9913   -0.3073    1.6815 H   0  0  0  0  0  0  0  0  0  0  0  0
   -4.5076    1.0061    0.2906 H   0  0  0  0  0  0  0  0  0  0  0  0
   -1.1213    2.5831   -0.0872 H   0  0  0  0  0  0  0  0  0  0  0  0
    3.5597   -0.4953   -1.6380 H   0  0  0  0  0  0  0  0  0  0  0  0
    1.8572   -0.3153   -2.0224 H   0  0  0  0  0  0  0  0  0  0  0  0
   -1.3313   -2.3650    0.0499 H   0  0  0  0  0  0  0  0  0  0  0  0
   -3.4266   -1.0681    0.0678 H   0  0  0  0  0  0  0  0  0  0  0  0
    3.8067    4.5361   -4.6565 H   0  0  0  0  0  0  0  0  0  0  0  0
    5.2333    4.0242   -2.6934 H   0  0  0  0  0  0  0  0  0  0  0  0
    1.9255    3.0310   -5.2455 H   0  0  0  0  0  0  0  0  0  0  0  0
    4.7840    2.0190   -1.3132 H   0  0  0  0  0  0  0  0  0  0  0  0
    1.4268    1.0617   -3.8484 H   0  0  0  0  0  0  0  0  0  0  0  0
   -5.8764    3.0501   -0.3655 H   0  0  0  0  0  0  0  0  0  0  0  0
   -5.6523    3.0290    1.4152 H   0  0  0  0  0  0  0  0  0  0  0  0
   -5.2821    4.4867    0.4816 H   0  0  0  0  0  0  0  0  0  0  0  0
  2  5  1  0  0  0  0
  3  4  1  0  0  0  0
  3  6  1  0  0  0  0
  4  1  2  0  0  0  0
  5  1  1  0  0  0  0
  5 22  1  0  0  0  0
  5 23  1  0  0  0  0
  6  2  1  0  0  0  0
  6 24  1  0  0  0  0
  6 25  1  0  0  0  0
  7  8  1  0  0  0  0
  8 10  1  0  0  0  0
  8 26  1  0  0  0  0
  9  1  1  0  0  0  0
  9 27  1  0  0  0  0
 10  9  2  0  0  0  0
 11  7  2  0  0  0  0
 12  2  1  0  0  0  0
 12 28  1  0  0  0  0
 12 29  1  0  0  0  0
 13  4  1  0  0  0  0
 13 30  1  0  0  0  0
 14 12  1  0  0  0  0
 15 10  1  0  0  0  0
 15 13  2  0  0  0  0
 15 31  1  0  0  0  0
 16 18  2  0  0  0  0
 16 32  1  0  0  0  0
 17 19  2  0  0  0  0
 17 16  1  0  0  0  0
 17 33  1  0  0  0  0
 18 20  1  0  0  0  0
 18 34  1  0  0  0  0
 19 14  1  0  0  0  0
 19 35  1  0  0  0  0
 20 14  2  0  0  0  0
 20 36  1  0  0  0  0
 21  7  1  0  0  0  0
 21 37  1  0  0  0  0
 21 38  1  0  0  0  0
 21 39  1  0  0  0  0
M  END
>  <Mol_ID>
8911

>  <Formula>
C17H17ClN2O2

>  <MolWeight>
316.78208

>  <Cat>
P2469

>  <Name>
WAY-326352

>  <Synonyms>
N/A

>  <Target>
NMDA receptor

>  <Form>
free base

>  <CAS>
870756-81-3

>  <URL>
N/A

$$$$
