WAY-326095
 OpenBabel08302521433D

 53 56  0  0  0  0  0  0  0  0999 V2000
    0.3160   -0.7468    0.5537 C   0  0  0  0  0  0  0  0  0  0  0  0
    0.2932    0.6382    0.3441 N   0  0  0  0  0  0  0  0  0  0  0  0
    1.5291   -1.2083    0.0414 C   0  0  0  0  0  0  0  0  0  0  0  0
   -0.8197    1.4014    0.6779 C   0  0  0  0  0  0  0  0  0  0  0  0
    4.6097   -4.6642   -1.3243 C   0  0  0  0  0  0  0  0  0  0  0  0
   -0.7484   -1.3860    1.1417 N   0  0  0  0  0  0  0  0  0  0  0  0
    1.4603    1.0784   -0.1872 N   0  0  0  0  0  0  0  0  0  0  0  0
   -1.8924    0.8076    1.2358 C   0  0  0  0  0  0  0  0  0  0  0  0
    6.2708   -5.7454   -2.4831 N   0  0  0  0  0  0  0  0  0  0  0  0
    5.7907   -4.7147   -3.1907 N   0  0  0  0  0  0  0  0  0  0  0  0
    1.9432   -2.6118   -0.0811 C   0  0  0  0  0  0  0  0  0  0  0  0
    4.7487   -4.0668   -2.5751 C   0  0  0  0  0  0  0  0  0  0  0  0
   -1.7987   -0.6713    1.4435 C   0  0  0  0  0  0  0  0  0  0  0  0
    5.5474   -5.7456   -1.3610 C   0  0  0  0  0  0  0  0  0  0  0  0
    2.1605   -0.0325   -0.4065 C   0  0  0  0  0  0  0  0  0  0  0  0
    3.6535   -4.3758   -0.1975 C   0  0  0  0  0  0  0  0  0  0  0  0
    3.3125   -2.9520   -0.0700 N   0  0  0  0  0  0  0  0  0  0  0  0
   -0.7528    2.8602    0.4091 C   0  0  0  0  0  0  0  0  0  0  0  0
    1.0916   -3.4905   -0.2278 O   0  0  0  0  0  0  0  0  0  0  0  0
   -2.9933   -1.3252    2.0656 C   0  0  0  0  0  0  0  0  0  0  0  0
   -1.1728    3.1330   -0.8563 F   0  0  0  0  0  0  0  0  0  0  0  0
   -1.6043    3.5449    1.2280 F   0  0  0  0  0  0  0  0  0  0  0  0
    6.3974   -4.4396   -4.4730 C   0  0  0  0  0  0  0  0  0  0  0  0
    3.9971   -2.9709   -3.2386 C   0  0  0  0  0  0  0  0  0  0  0  0
    5.7869   -6.8323   -0.3760 C   0  0  0  0  0  0  0  0  0  0  0  0
    4.3631   -2.0875    0.4505 C   0  0  0  0  0  0  0  0  0  0  0  0
   -4.2978   -0.8476    1.8664 C   0  0  0  0  0  0  0  0  0  0  0  0
   -2.7965   -2.4616    2.8592 C   0  0  0  0  0  0  0  0  0  0  0  0
   -3.8853   -3.1022    3.4563 C   0  0  0  0  0  0  0  0  0  0  0  0
   -5.3847   -1.4891    2.4681 C   0  0  0  0  0  0  0  0  0  0  0  0
   -5.1772   -2.6158    3.2606 C   0  0  0  0  0  0  0  0  0  0  0  0
   -2.7675    1.3670    1.5371 H   0  0  0  0  0  0  0  0  0  0  0  0
    3.1069    0.0797   -0.9152 H   0  0  0  0  0  0  0  0  0  0  0  0
    4.1035   -4.6714    0.7591 H   0  0  0  0  0  0  0  0  0  0  0  0
    2.7660   -5.0022   -0.3286 H   0  0  0  0  0  0  0  0  0  0  0  0
    0.2435    3.2888    0.5505 H   0  0  0  0  0  0  0  0  0  0  0  0
    7.4797   -4.3696   -4.3329 H   0  0  0  0  0  0  0  0  0  0  0  0
    6.1533   -5.2613   -5.1512 H   0  0  0  0  0  0  0  0  0  0  0  0
    6.0289   -3.4957   -4.8766 H   0  0  0  0  0  0  0  0  0  0  0  0
    4.5311   -2.0227   -3.1245 H   0  0  0  0  0  0  0  0  0  0  0  0
    3.8722   -3.1696   -4.3087 H   0  0  0  0  0  0  0  0  0  0  0  0
    2.9920   -2.8614   -2.8251 H   0  0  0  0  0  0  0  0  0  0  0  0
    5.5082   -7.7995   -0.8101 H   0  0  0  0  0  0  0  0  0  0  0  0
    6.8471   -6.8769   -0.1050 H   0  0  0  0  0  0  0  0  0  0  0  0
    5.2077   -6.6979    0.5403 H   0  0  0  0  0  0  0  0  0  0  0  0
    4.5557   -1.2759   -0.2506 H   0  0  0  0  0  0  0  0  0  0  0  0
    4.0594   -1.6852    1.4212 H   0  0  0  0  0  0  0  0  0  0  0  0
    5.2998   -2.6409    0.5732 H   0  0  0  0  0  0  0  0  0  0  0  0
   -4.5011    0.0070    1.2283 H   0  0  0  0  0  0  0  0  0  0  0  0
   -1.7938   -2.8539    3.0161 H   0  0  0  0  0  0  0  0  0  0  0  0
   -3.7232   -3.9855    4.0683 H   0  0  0  0  0  0  0  0  0  0  0  0
   -6.3934   -1.1169    2.3068 H   0  0  0  0  0  0  0  0  0  0  0  0
   -6.0241   -3.1226    3.7172 H   0  0  0  0  0  0  0  0  0  0  0  0
  2  1  1  0  0  0  0
  3  1  2  0  0  0  0
  4  2  1  0  0  0  0
  4  8  2  0  0  0  0
  5 16  1  0  0  0  0
  6  1  1  0  0  0  0
  7  2  1  0  0  0  0
  7 15  2  0  0  0  0
  8 13  1  0  0  0  0
  8 32  1  0  0  0  0
  9 14  2  0  0  0  0
 10 12  1  0  0  0  0
 10  9  1  0  0  0  0
 11  3  1  0  0  0  0
 12  5  2  0  0  0  0
 13  6  2  0  0  0  0
 14  5  1  0  0  0  0
 15  3  1  0  0  0  0
 15 33  1  0  0  0  0
 16 17  1  0  0  0  0
 16 34  1  0  0  0  0
 16 35  1  0  0  0  0
 17 11  1  0  0  0  0
 18  4  1  0  0  0  0
 18 36  1  0  0  0  0
 19 11  2  0  0  0  0
 20 13  1  0  0  0  0
 21 18  1  0  0  0  0
 22 18  1  0  0  0  0
 23 10  1  0  0  0  0
 23 37  1  0  0  0  0
 23 38  1  0  0  0  0
 23 39  1  0  0  0  0
 24 12  1  0  0  0  0
 24 40  1  0  0  0  0
 24 41  1  0  0  0  0
 24 42  1  0  0  0  0
 25 14  1  0  0  0  0
 25 43  1  0  0  0  0
 25 44  1  0  0  0  0
 25 45  1  0  0  0  0
 26 17  1  0  0  0  0
 26 46  1  0  0  0  0
 26 47  1  0  0  0  0
 26 48  1  0  0  0  0
 27 20  2  0  0  0  0
 27 49  1  0  0  0  0
 28 20  1  0  0  0  0
 28 50  1  0  0  0  0
 29 28  2  0  0  0  0
 29 51  1  0  0  0  0
 30 27  1  0  0  0  0
 30 52  1  0  0  0  0
 31 29  1  0  0  0  0
 31 30  2  0  0  0  0
 31 53  1  0  0  0  0
M  END
>  <Mol_ID>
8886

>  <Formula>
C22H22F2N6O

>  <MolWeight>
424.4464864

>  <Cat>
P2444

>  <Name>
WAY-326095

>  <Synonyms>
N/A

>  <Target>
11¦Â-HSD1

>  <Form>
free base

>  <CAS>
869713-92-8

>  <URL>
N/A

$$$$
