WAY-325267
 OpenBabel08302521423D

 36 38  0  0  0  0  0  0  0  0999 V2000
   -1.7043   -1.2970    0.1310 C   0  0  0  0  0  0  0  0  0  0  0  0
   -1.3526   -0.9408    1.5292 C   0  0  0  0  0  0  0  0  0  0  0  0
   -0.7340    0.2821    1.7067 O   0  0  0  0  0  0  0  0  0  0  0  0
   -0.8856   -0.8744   -0.8479 C   0  0  0  0  0  0  0  0  0  0  0  0
   -2.8884   -2.1977   -0.0735 C   0  0  0  0  0  0  0  0  0  0  0  0
    0.2084    0.6373    0.7334 C   0  0  0  0  0  0  0  0  0  0  0  0
   -4.1916   -1.4092   -0.1977 C   0  0  0  0  0  0  0  0  0  0  0  0
    0.2242    0.0103   -0.5121 C   0  0  0  0  0  0  0  0  0  0  0  0
   -5.1586   -1.3447    0.9501 C   0  0  0  0  0  0  0  0  0  0  0  0
   -1.6492   -1.6572    2.4766 O   0  0  0  0  0  0  0  0  0  0  0  0
   -4.4814   -0.8440   -1.2515 O   0  0  0  0  0  0  0  0  0  0  0  0
   -4.8189   -1.7399    2.2447 C   0  0  0  0  0  0  0  0  0  0  0  0
   -6.4612   -0.8816    0.7181 C   0  0  0  0  0  0  0  0  0  0  0  0
   -7.0612   -1.2947    3.0388 C   0  0  0  0  0  0  0  0  0  0  0  0
   -5.7545   -1.7076    3.2849 C   0  0  0  0  0  0  0  0  0  0  0  0
   -7.4047   -0.8648    1.7593 C   0  0  0  0  0  0  0  0  0  0  0  0
   -8.0722   -1.2748    3.9591 O   0  0  0  0  0  0  0  0  0  0  0  0
    1.1609    1.5885    1.0918 C   0  0  0  0  0  0  0  0  0  0  0  0
    1.2716    0.2875   -1.3899 C   0  0  0  0  0  0  0  0  0  0  0  0
   -7.7787   -1.8272    5.2392 C   0  0  0  0  0  0  0  0  0  0  0  0
    2.2624    1.2063   -1.0218 C   0  0  0  0  0  0  0  0  0  0  0  0
    2.1932    1.8722    0.2049 C   0  0  0  0  0  0  0  0  0  0  0  0
   -1.0521   -1.1331   -1.8891 H   0  0  0  0  0  0  0  0  0  0  0  0
   -2.7770   -2.7611   -1.0102 H   0  0  0  0  0  0  0  0  0  0  0  0
   -2.9580   -2.9717    0.6967 H   0  0  0  0  0  0  0  0  0  0  0  0
   -3.8295   -2.0918    2.4997 H   0  0  0  0  0  0  0  0  0  0  0  0
   -6.7608   -0.5482   -0.2733 H   0  0  0  0  0  0  0  0  0  0  0  0
   -5.4238   -2.0168    4.2693 H   0  0  0  0  0  0  0  0  0  0  0  0
   -8.4174   -0.5229    1.5574 H   0  0  0  0  0  0  0  0  0  0  0  0
    1.1067    2.0826    2.0583 H   0  0  0  0  0  0  0  0  0  0  0  0
    1.3375   -0.2113   -2.3528 H   0  0  0  0  0  0  0  0  0  0  0  0
   -7.4243   -2.8615    5.1610 H   0  0  0  0  0  0  0  0  0  0  0  0
   -7.0562   -1.2018    5.7747 H   0  0  0  0  0  0  0  0  0  0  0  0
   -8.7048   -1.8400    5.8208 H   0  0  0  0  0  0  0  0  0  0  0  0
    3.0906    1.4086   -1.6984 H   0  0  0  0  0  0  0  0  0  0  0  0
    2.9547    2.6027    0.4732 H   0  0  0  0  0  0  0  0  0  0  0  0
  2  1  1  0  0  0  0
  3  2  1  0  0  0  0
  3  6  1  0  0  0  0
  4  1  2  0  0  0  0
  4 23  1  0  0  0  0
  5  1  1  0  0  0  0
  5 24  1  0  0  0  0
  5 25  1  0  0  0  0
  6  8  2  0  0  0  0
  7  5  1  0  0  0  0
  8  4  1  0  0  0  0
  9  7  1  0  0  0  0
 10  2  2  0  0  0  0
 11  7  2  0  0  0  0
 12  9  2  0  0  0  0
 12 26  1  0  0  0  0
 13  9  1  0  0  0  0
 13 27  1  0  0  0  0
 14 16  1  0  0  0  0
 14 15  2  0  0  0  0
 15 12  1  0  0  0  0
 15 28  1  0  0  0  0
 16 13  2  0  0  0  0
 16 29  1  0  0  0  0
 17 14  1  0  0  0  0
 18  6  1  0  0  0  0
 18 22  2  0  0  0  0
 18 30  1  0  0  0  0
 19  8  1  0  0  0  0
 19 31  1  0  0  0  0
 20 17  1  0  0  0  0
 20 32  1  0  0  0  0
 20 33  1  0  0  0  0
 20 34  1  0  0  0  0
 21 19  2  0  0  0  0
 21 35  1  0  0  0  0
 22 21  1  0  0  0  0
 22 36  1  0  0  0  0
M  END
>  <Mol_ID>
8676

>  <Formula>
C18H14O4

>  <MolWeight>
294.30136

>  <Cat>
P2375

>  <Name>
WAY-325267

>  <Synonyms>
N/A

>  <Target>
Androgen Receptor

>  <Form>
free base

>  <CAS>
341017-84-3

>  <URL>
N/A

$$$$
