WAY-326366
 OpenBabel08302521433D

 35 38  0  0  0  0  0  0  0  0999 V2000
    0.7133    0.4341   -0.0137 C   0  0  0  0  0  0  0  0  0  0  0  0
   -0.7095    0.3673   -0.0050 C   0  0  0  0  0  0  0  0  0  0  0  0
    1.2504   -0.8490   -0.0318 C   0  0  0  0  0  0  0  0  0  0  0  0
    1.6326    1.5004   -0.0108 C   0  0  0  0  0  0  0  0  0  0  0  0
   -1.1986   -0.9236   -0.0111 C   0  0  0  0  0  0  0  0  0  0  0  0
   -1.6083    1.4220    0.0086 N   0  0  0  0  0  0  0  0  0  0  0  0
    0.0591   -2.0710   -0.0333 S   0  0  0  0  0  0  0  0  0  0  0  0
    2.5549   -1.1768   -0.0440 N   0  0  0  0  0  0  0  0  0  0  0  0
    2.9949    1.1975   -0.0195 C   0  0  0  0  0  0  0  0  0  0  0  0
   -2.5850   -1.2228   -0.0036 C   0  0  0  0  0  0  0  0  0  0  0  0
   -2.9689    1.2148    0.0123 C   0  0  0  0  0  0  0  0  0  0  0  0
    3.4152   -0.1333   -0.0258 C   0  0  0  0  0  0  0  0  0  0  0  0
   -3.4493   -0.1978    0.0059 C   0  0  0  0  0  0  0  0  0  0  0  0
   -2.9957   -2.5331   -0.0056 O   0  0  0  0  0  0  0  0  0  0  0  0
   -3.7673    2.1461    0.0208 O   0  0  0  0  0  0  0  0  0  0  0  0
    4.8462   -0.5084    0.0022 C   0  0  0  0  0  0  0  0  0  0  0  0
    5.2921   -1.6924   -0.6132 C   0  0  0  0  0  0  0  0  0  0  0  0
    5.8102    0.2719    0.6627 C   0  0  0  0  0  0  0  0  0  0  0  0
    6.6363   -2.0850   -0.5698 C   0  0  0  0  0  0  0  0  0  0  0  0
    7.1531   -0.1187    0.7074 C   0  0  0  0  0  0  0  0  0  0  0  0
    7.5725   -1.2987    0.0957 C   0  0  0  0  0  0  0  0  0  0  0  0
    8.9065   -1.5675    0.2228 O   0  0  0  0  0  0  0  0  0  0  0  0
    9.3704   -2.7784   -0.3605 C   0  0  0  0  0  0  0  0  0  0  0  0
    1.3006    2.5337    0.0003 H   0  0  0  0  0  0  0  0  0  0  0  0
   -1.2832    2.3785    0.0129 H   0  0  0  0  0  0  0  0  0  0  0  0
    3.7139    2.0108   -0.0309 H   0  0  0  0  0  0  0  0  0  0  0  0
   -4.5201   -0.3480    0.0118 H   0  0  0  0  0  0  0  0  0  0  0  0
   -2.1980   -3.0933   -0.0059 H   0  0  0  0  0  0  0  0  0  0  0  0
    4.5801   -2.3319   -1.1345 H   0  0  0  0  0  0  0  0  0  0  0  0
    5.5296    1.1863    1.1795 H   0  0  0  0  0  0  0  0  0  0  0  0
    6.9087   -3.0128   -1.0612 H   0  0  0  0  0  0  0  0  0  0  0  0
    7.8744    0.4993    1.2365 H   0  0  0  0  0  0  0  0  0  0  0  0
    8.9181   -3.6477    0.1286 H   0  0  0  0  0  0  0  0  0  0  0  0
    9.1891   -2.7926   -1.4402 H   0  0  0  0  0  0  0  0  0  0  0  0
   10.4520   -2.8314   -0.2056 H   0  0  0  0  0  0  0  0  0  0  0  0
  1  2  1  0  0  0  0
  1  3  1  0  0  0  0
  1  4  2  0  0  0  0
  2  5  2  0  0  0  0
  2  6  1  0  0  0  0
  3  7  1  0  0  0  0
  3  8  2  0  0  0  0
  4  9  1  0  0  0  0
  4 24  1  0  0  0  0
  5 10  1  0  0  0  0
  5  7  1  0  0  0  0
  6 11  1  0  0  0  0
  6 25  1  0  0  0  0
  8 12  1  0  0  0  0
  9 12  2  0  0  0  0
  9 26  1  0  0  0  0
 10 13  2  0  0  0  0
 10 14  1  0  0  0  0
 11 15  2  0  0  0  0
 11 13  1  0  0  0  0
 12 16  1  0  0  0  0
 13 27  1  0  0  0  0
 14 28  1  0  0  0  0
 16 17  2  0  0  0  0
 16 18  1  0  0  0  0
 17 19  1  0  0  0  0
 17 29  1  0  0  0  0
 18 20  2  0  0  0  0
 18 30  1  0  0  0  0
 19 21  2  0  0  0  0
 19 31  1  0  0  0  0
 20 21  1  0  0  0  0
 20 32  1  0  0  0  0
 21 22  1  0  0  0  0
 22 23  1  0  0  0  0
 23 33  1  0  0  0  0
 23 34  1  0  0  0  0
 23 35  1  0  0  0  0
M  END
>  <Mol_ID>
8916

>  <Formula>
C17H12N2O3S

>  <MolWeight>
324.35378

>  <Cat>
P2475

>  <Name>
WAY-326366

>  <Synonyms>
N/A

>  <Target>
Others

>  <Form>
free base

>  <CAS>
870757-60-1

>  <URL>
N/A

$$$$
