WAY-300434
 OpenBabel08302521413D

 48 50  0  0  0  0  0  0  0  0999 V2000
    0.9801   -0.0574    0.1612 N   0  0  0  0  0  0  0  0  0  0  0  0
    0.1985   -1.2517    0.2237 C   0  0  0  0  0  0  0  0  0  0  0  0
    0.1829    1.4152   -0.0652 S   0  0  0  0  0  0  0  0  0  0  0  0
    2.4419   -0.1487   -0.0218 C   0  0  0  0  0  0  0  0  0  0  0  0
   -0.0512   -1.9651   -0.9468 C   0  0  0  0  0  0  0  0  0  0  0  0
   -0.3565   -1.6927    1.4269 C   0  0  0  0  0  0  0  0  0  0  0  0
    0.2921    2.2320    1.5065 C   0  0  0  0  0  0  0  0  0  0  0  0
    0.9724    2.2051   -0.9883 O   0  0  0  0  0  0  0  0  0  0  0  0
   -1.2190    1.1795   -0.3372 O   0  0  0  0  0  0  0  0  0  0  0  0
    3.0205   -0.1734   -1.4359 C   0  0  0  0  0  0  0  0  0  0  0  0
   -0.8750   -3.0955   -0.9345 C   0  0  0  0  0  0  0  0  0  0  0  0
   -1.1708   -2.8351    1.4433 C   0  0  0  0  0  0  0  0  0  0  0  0
    1.3822    3.0688    1.7712 C   0  0  0  0  0  0  0  0  0  0  0  0
   -0.8017    2.1988    2.3745 C   0  0  0  0  0  0  0  0  0  0  0  0
    2.3205    0.4873   -2.4261 N   0  0  0  0  0  0  0  0  0  0  0  0
    4.1041   -0.7206   -1.6568 O   0  0  0  0  0  0  0  0  0  0  0  0
   -1.4470   -3.5369    0.2628 C   0  0  0  0  0  0  0  0  0  0  0  0
    1.3840    3.8608    2.9200 C   0  0  0  0  0  0  0  0  0  0  0  0
   -0.7941    2.9953    3.5206 C   0  0  0  0  0  0  0  0  0  0  0  0
    2.8167    0.6387   -3.7591 C   0  0  0  0  0  0  0  0  0  0  0  0
   -2.2751   -4.6130    0.3965 O   0  0  0  0  0  0  0  0  0  0  0  0
    0.2944    3.8337    3.7999 C   0  0  0  0  0  0  0  0  0  0  0  0
    2.0104    1.3887   -4.7893 C   0  0  0  0  0  0  0  0  0  0  0  0
    2.1786   -0.0967   -4.9036 C   0  0  0  0  0  0  0  0  0  0  0  0
   -2.6016   -5.3248   -0.7942 C   0  0  0  0  0  0  0  0  0  0  0  0
    0.2693    4.7155    5.0137 C   0  0  0  0  0  0  0  0  0  0  0  0
    2.9307    0.6672    0.5223 H   0  0  0  0  0  0  0  0  0  0  0  0
    2.7867   -1.0737    0.4631 H   0  0  0  0  0  0  0  0  0  0  0  0
    0.3710   -1.6363   -1.8940 H   0  0  0  0  0  0  0  0  0  0  0  0
   -0.1742   -1.1615    2.3570 H   0  0  0  0  0  0  0  0  0  0  0  0
   -1.0589   -3.5985   -1.8745 H   0  0  0  0  0  0  0  0  0  0  0  0
   -1.6063   -3.1805    2.3783 H   0  0  0  0  0  0  0  0  0  0  0  0
    2.2127    3.1454    1.0734 H   0  0  0  0  0  0  0  0  0  0  0  0
   -1.6761    1.5936    2.1448 H   0  0  0  0  0  0  0  0  0  0  0  0
    1.6732    1.2134   -2.1174 H   0  0  0  0  0  0  0  0  0  0  0  0
    2.2264    4.5236    3.1075 H   0  0  0  0  0  0  0  0  0  0  0  0
   -1.6591    2.9840    4.1818 H   0  0  0  0  0  0  0  0  0  0  0  0
    3.8945    0.7828   -3.8033 H   0  0  0  0  0  0  0  0  0  0  0  0
    1.0277    1.7634   -4.5240 H   0  0  0  0  0  0  0  0  0  0  0  0
    2.5463    2.0179   -5.4905 H   0  0  0  0  0  0  0  0  0  0  0  0
    2.8319   -0.4786   -5.6783 H   0  0  0  0  0  0  0  0  0  0  0  0
    1.3162   -0.7208   -4.6995 H   0  0  0  0  0  0  0  0  0  0  0  0
   -3.1066   -4.6770   -1.5202 H   0  0  0  0  0  0  0  0  0  0  0  0
   -1.7079   -5.7843   -1.2324 H   0  0  0  0  0  0  0  0  0  0  0  0
   -3.2950   -6.1302   -0.5343 H   0  0  0  0  0  0  0  0  0  0  0  0
   -0.5742    5.4114    4.9573 H   0  0  0  0  0  0  0  0  0  0  0  0
    0.1767    4.1075    5.9194 H   0  0  0  0  0  0  0  0  0  0  0  0
    1.1864    5.3076    5.0985 H   0  0  0  0  0  0  0  0  0  0  0  0
  1  2  1  0  0  0  0
  1  3  1  0  0  0  0
  1  4  1  0  0  0  0
  2  5  2  0  0  0  0
  2  6  1  0  0  0  0
  3  7  1  0  0  0  0
  3  8  2  0  0  0  0
  3  9  2  0  0  0  0
  4 10  1  0  0  0  0
  4 27  1  0  0  0  0
  4 28  1  0  0  0  0
  5 11  1  0  0  0  0
  5 29  1  0  0  0  0
  6 12  2  0  0  0  0
  6 30  1  0  0  0  0
  7 13  2  0  0  0  0
  7 14  1  0  0  0  0
 10 15  1  0  0  0  0
 10 16  2  0  0  0  0
 11 17  2  0  0  0  0
 11 31  1  0  0  0  0
 12 17  1  0  0  0  0
 12 32  1  0  0  0  0
 13 18  1  0  0  0  0
 13 33  1  0  0  0  0
 14 19  2  0  0  0  0
 14 34  1  0  0  0  0
 15 20  1  0  0  0  0
 15 35  1  0  0  0  0
 17 21  1  0  0  0  0
 18 22  2  0  0  0  0
 18 36  1  0  0  0  0
 19 22  1  0  0  0  0
 19 37  1  0  0  0  0
 20 23  1  0  0  0  0
 20 24  1  0  0  0  0
 20 38  1  0  0  0  0
 21 25  1  0  0  0  0
 22 26  1  0  0  0  0
 23 24  1  0  0  0  0
 23 39  1  0  0  0  0
 23 40  1  0  0  0  0
 24 41  1  0  0  0  0
 24 42  1  0  0  0  0
 25 43  1  0  0  0  0
 25 44  1  0  0  0  0
 25 45  1  0  0  0  0
 26 46  1  0  0  0  0
 26 47  1  0  0  0  0
 26 48  1  0  0  0  0
M  END
>  <Mol_ID>
8409

>  <Formula>
C19H22N2O4S

>  <MolWeight>
374.45398

>  <Cat>
P2142

>  <Name>
WAY-300434

>  <Synonyms>
N/A

>  <Target>
UCH-L3

>  <Form>
free base

>  <CAS>
428483-89-0

>  <URL>
N/A

$$$$
