WAY-358754
 OpenBabel08302521393D

 39 42  0  0  0  0  0  0  0  0999 V2000
   -1.3250    0.8252   -0.4157 N   0  0  0  0  0  0  0  0  0  0  0  0
   -0.8702    2.0504   -0.2291 C   0  0  0  0  0  0  0  0  0  0  0  0
   -0.1702    0.0630   -0.4653 C   0  0  0  0  0  0  0  0  0  0  0  0
    0.5701    2.1281   -0.1473 C   0  0  0  0  0  0  0  0  0  0  0  0
    0.9726    0.8228   -0.3099 C   0  0  0  0  0  0  0  0  0  0  0  0
   -1.5964    3.2014   -0.0873 N   0  0  0  0  0  0  0  0  0  0  0  0
   -3.5761    4.3034   -0.8324 C   0  0  0  0  0  0  0  0  0  0  0  0
   -2.9608    3.1290   -0.4389 N   0  0  0  0  0  0  0  0  0  0  0  0
   -5.0492    4.2722   -1.1078 C   0  0  0  0  0  0  0  0  0  0  0  0
   -2.9399    5.3510   -0.9587 O   0  0  0  0  0  0  0  0  0  0  0  0
    2.2541    0.3656   -0.3039 C   0  0  0  0  0  0  0  0  0  0  0  0
   -5.8870    3.2152   -0.7222 C   0  0  0  0  0  0  0  0  0  0  0  0
   -5.6278    5.3943   -1.7239 C   0  0  0  0  0  0  0  0  0  0  0  0
   -7.8213    4.3719   -1.6340 C   0  0  0  0  0  0  0  0  0  0  0  0
   -7.0011    5.4457   -1.9763 C   0  0  0  0  0  0  0  0  0  0  0  0
   -7.2667    3.2675   -0.9844 C   0  0  0  0  0  0  0  0  0  0  0  0
   -0.0418   -1.3145   -0.6297 C   0  0  0  0  0  0  0  0  0  0  0  0
    1.5291    3.1178    0.0564 C   0  0  0  0  0  0  0  0  0  0  0  0
   -9.1478    4.5319   -1.9198 O   0  0  0  0  0  0  0  0  0  0  0  0
    1.2672   -1.8420   -0.6325 C   0  0  0  0  0  0  0  0  0  0  0  0
    2.8796    2.6921    0.0598 C   0  0  0  0  0  0  0  0  0  0  0  0
    2.4068   -1.0238   -0.4761 C   0  0  0  0  0  0  0  0  0  0  0  0
    3.2479    1.3410   -0.1208 C   0  0  0  0  0  0  0  0  0  0  0  0
   -9.8418    3.3396   -2.2769 C   0  0  0  0  0  0  0  0  0  0  0  0
   -1.1626    4.1000   -0.2997 H   0  0  0  0  0  0  0  0  0  0  0  0
   -3.3440    2.1920   -0.5376 H   0  0  0  0  0  0  0  0  0  0  0  0
   -5.5013    2.3566   -0.1810 H   0  0  0  0  0  0  0  0  0  0  0  0
   -5.0090    6.2459   -1.9999 H   0  0  0  0  0  0  0  0  0  0  0  0
   -7.4322    6.3265   -2.4454 H   0  0  0  0  0  0  0  0  0  0  0  0
   -7.8948    2.4506   -0.6427 H   0  0  0  0  0  0  0  0  0  0  0  0
   -0.9188   -1.9395   -0.7457 H   0  0  0  0  0  0  0  0  0  0  0  0
    1.2626    4.1558    0.2124 H   0  0  0  0  0  0  0  0  0  0  0  0
    1.3997   -2.9156   -0.7540 H   0  0  0  0  0  0  0  0  0  0  0  0
    3.6652    3.4312    0.2118 H   0  0  0  0  0  0  0  0  0  0  0  0
    3.3964   -1.4725   -0.4821 H   0  0  0  0  0  0  0  0  0  0  0  0
    4.2988    1.0600   -0.1094 H   0  0  0  0  0  0  0  0  0  0  0  0
   -9.3030    2.7805   -3.0494 H   0  0  0  0  0  0  0  0  0  0  0  0
  -10.0315    2.7155   -1.3989 H   0  0  0  0  0  0  0  0  0  0  0  0
  -10.8127    3.6302   -2.6927 H   0  0  0  0  0  0  0  0  0  0  0  0
  2  1  2  0  0  0  0
  3  1  1  0  0  0  0
  4  2  1  0  0  0  0
  5  3  1  0  0  0  0
  5  4  2  0  0  0  0
  6  2  1  0  0  0  0
  6 25  1  0  0  0  0
  7  8  1  0  0  0  0
  8  6  1  0  0  0  0
  8 26  1  0  0  0  0
  9  7  1  0  0  0  0
 10  7  2  0  0  0  0
 11  5  1  0  0  0  0
 12  9  2  0  0  0  0
 12 27  1  0  0  0  0
 13  9  1  0  0  0  0
 13 28  1  0  0  0  0
 14 15  1  0  0  0  0
 15 13  2  0  0  0  0
 15 29  1  0  0  0  0
 16 12  1  0  0  0  0
 16 14  2  0  0  0  0
 16 30  1  0  0  0  0
 17  3  2  0  0  0  0
 17 31  1  0  0  0  0
 18  4  1  0  0  0  0
 18 32  1  0  0  0  0
 19 14  1  0  0  0  0
 20 17  1  0  0  0  0
 20 33  1  0  0  0  0
 21 18  2  0  0  0  0
 21 34  1  0  0  0  0
 22 20  2  0  0  0  0
 22 11  1  0  0  0  0
 22 35  1  0  0  0  0
 23 11  2  0  0  0  0
 23 21  1  0  0  0  0
 23 36  1  0  0  0  0
 24 19  1  0  0  0  0
 24 37  1  0  0  0  0
 24 38  1  0  0  0  0
 24 39  1  0  0  0  0
M  END
>  <Mol_ID>
8079

>  <Formula>
C19H15N3O2

>  <MolWeight>
317.3413

>  <Cat>
P2782

>  <Name>
WAY-358754

>  <Synonyms>
N/A

>  <Target>
others

>  <Form>
free base

>  <CAS>
326617-91-8

>  <URL>
N/A

$$$$
