WAY-327131
 OpenBabel08302521443D

 40 42  0  0  0  0  0  0  0  0999 V2000
    0.0972    1.3336    0.0538 C   0  0  0  0  0  0  0  0  0  0  0  0
    1.2175    0.5949    0.1168 N   0  0  0  0  0  0  0  0  0  0  0  0
   -1.1306    0.8057    0.1345 N   0  0  0  0  0  0  0  0  0  0  0  0
    1.1132   -0.7412    0.2850 C   0  0  0  0  0  0  0  0  0  0  0  0
   -1.2426   -0.5219    0.3361 C   0  0  0  0  0  0  0  0  0  0  0  0
   -2.6128   -1.1697    0.2833 C   0  0  0  0  0  0  0  0  0  0  0  0
    0.2185    2.6878   -0.2386 N   0  0  0  0  0  0  0  0  0  0  0  0
   -0.1299   -1.3253    0.4726 C   0  0  0  0  0  0  0  0  0  0  0  0
    2.3394   -1.5786    0.0888 C   0  0  0  0  0  0  0  0  0  0  0  0
    3.6714   -1.1460    0.3011 C   0  0  0  0  0  0  0  0  0  0  0  0
   -3.6358   -0.3066    0.0286 F   0  0  0  0  0  0  0  0  0  0  0  0
   -2.6867   -2.1242   -0.6931 F   0  0  0  0  0  0  0  0  0  0  0  0
   -2.9405   -1.8120    1.4408 F   0  0  0  0  0  0  0  0  0  0  0  0
   -0.1432    5.5119   -0.1025 O   0  0  0  0  0  0  0  0  0  0  0  0
    3.8879    0.1231    0.7926 O   0  0  0  0  0  0  0  0  0  0  0  0
   -1.0139    3.3112   -0.7419 C   0  0  0  0  0  0  0  0  0  0  0  0
    0.8125    3.4502    0.8673 C   0  0  0  0  0  0  0  0  0  0  0  0
    2.1836   -2.8995   -0.4120 C   0  0  0  0  0  0  0  0  0  0  0  0
   -0.6905    4.7429   -1.1884 C   0  0  0  0  0  0  0  0  0  0  0  0
    1.0611    4.8947    0.3923 C   0  0  0  0  0  0  0  0  0  0  0  0
    4.7500   -2.0269    0.0688 C   0  0  0  0  0  0  0  0  0  0  0  0
    5.1409    0.7212    0.4484 C   0  0  0  0  0  0  0  0  0  0  0  0
    3.2576   -3.7584   -0.6465 C   0  0  0  0  0  0  0  0  0  0  0  0
    4.5451   -3.3221   -0.4009 C   0  0  0  0  0  0  0  0  0  0  0  0
   -0.2533   -2.3892    0.6350 H   0  0  0  0  0  0  0  0  0  0  0  0
   -1.7780    3.3462    0.0481 H   0  0  0  0  0  0  0  0  0  0  0  0
   -1.4134    2.7557   -1.5980 H   0  0  0  0  0  0  0  0  0  0  0  0
    0.1173    3.4710    1.7187 H   0  0  0  0  0  0  0  0  0  0  0  0
    1.7604    3.0151    1.2081 H   0  0  0  0  0  0  0  0  0  0  0  0
    1.1992   -3.2898   -0.6618 H   0  0  0  0  0  0  0  0  0  0  0  0
    0.0238    4.7410   -2.0209 H   0  0  0  0  0  0  0  0  0  0  0  0
   -1.6025    5.2426   -1.5297 H   0  0  0  0  0  0  0  0  0  0  0  0
    1.4244    5.5083    1.2228 H   0  0  0  0  0  0  0  0  0  0  0  0
    1.8185    4.9181   -0.4004 H   0  0  0  0  0  0  0  0  0  0  0  0
    5.7766   -1.7272    0.2540 H   0  0  0  0  0  0  0  0  0  0  0  0
    5.9505    0.2834    1.0386 H   0  0  0  0  0  0  0  0  0  0  0  0
    5.3435    0.6373   -0.6262 H   0  0  0  0  0  0  0  0  0  0  0  0
    5.0862    1.7806    0.7002 H   0  0  0  0  0  0  0  0  0  0  0  0
    3.0769   -4.7600   -1.0268 H   0  0  0  0  0  0  0  0  0  0  0  0
    5.3907   -3.9812   -0.5784 H   0  0  0  0  0  0  0  0  0  0  0  0
  2  1  2  0  0  0  0
  3  1  1  0  0  0  0
  4  2  1  0  0  0  0
  4  8  2  0  0  0  0
  5  3  2  0  0  0  0
  6  5  1  0  0  0  0
  7  1  1  0  0  0  0
  8  5  1  0  0  0  0
  8 25  1  0  0  0  0
  9  4  1  0  0  0  0
 10  9  2  0  0  0  0
 11  6  1  0  0  0  0
 12  6  1  0  0  0  0
 13  6  1  0  0  0  0
 14 20  1  0  0  0  0
 14 19  1  0  0  0  0
 15 10  1  0  0  0  0
 16  7  1  0  0  0  0
 16 26  1  0  0  0  0
 16 27  1  0  0  0  0
 17  7  1  0  0  0  0
 17 28  1  0  0  0  0
 17 29  1  0  0  0  0
 18  9  1  0  0  0  0
 18 30  1  0  0  0  0
 19 16  1  0  0  0  0
 19 31  1  0  0  0  0
 19 32  1  0  0  0  0
 20 17  1  0  0  0  0
 20 33  1  0  0  0  0
 20 34  1  0  0  0  0
 21 10  1  0  0  0  0
 21 35  1  0  0  0  0
 22 15  1  0  0  0  0
 22 36  1  0  0  0  0
 22 37  1  0  0  0  0
 22 38  1  0  0  0  0
 23 18  2  0  0  0  0
 23 39  1  0  0  0  0
 24 23  1  0  0  0  0
 24 21  2  0  0  0  0
 24 40  1  0  0  0  0
M  END
>  <Mol_ID>
8955

>  <Formula>
C16H16F3N3O2

>  <MolWeight>
339.3123496

>  <Cat>
P2514

>  <Name>
WAY-327131

>  <Synonyms>
N/A

>  <Target>
RAGE

>  <Form>
free base

>  <CAS>
725695-33-0

>  <URL>
N/A

$$$$
