WAY-327150
 OpenBabel08302521443D

 48 50  0  0  0  0  0  0  0  0999 V2000
    0.0507    1.3264   -0.0218 C   0  0  0  0  0  0  0  0  0  0  0  0
    1.2039    0.6489    0.0085 N   0  0  0  0  0  0  0  0  0  0  0  0
   -1.1380    0.7068   -0.0328 N   0  0  0  0  0  0  0  0  0  0  0  0
    1.1537   -0.7083    0.0077 C   0  0  0  0  0  0  0  0  0  0  0  0
    2.4400   -1.5149    0.0173 C   0  0  0  0  0  0  0  0  0  0  0  0
    0.0666    2.7106   -0.1292 N   0  0  0  0  0  0  0  0  0  0  0  0
   -1.1912   -0.6387   -0.0191 C   0  0  0  0  0  0  0  0  0  0  0  0
   -0.0444   -1.3966   -0.0121 C   0  0  0  0  0  0  0  0  0  0  0  0
   -2.5494   -1.2168   -0.0342 C   0  0  0  0  0  0  0  0  0  0  0  0
    0.0116    5.5762    0.3664 N   0  0  0  0  0  0  0  0  0  0  0  0
   -3.6219   -0.5081   -0.6176 C   0  0  0  0  0  0  0  0  0  0  0  0
   -4.9313   -1.0165   -0.6606 C   0  0  0  0  0  0  0  0  0  0  0  0
   -5.1838   -2.2733   -0.0878 C   0  0  0  0  0  0  0  0  0  0  0  0
    1.2609    3.3836    0.3985 C   0  0  0  0  0  0  0  0  0  0  0  0
   -1.1960    3.3793    0.2118 C   0  0  0  0  0  0  0  0  0  0  0  0
   -2.8333   -2.4663    0.5282 C   0  0  0  0  0  0  0  0  0  0  0  0
    3.5784   -0.7708    0.0347 F   0  0  0  0  0  0  0  0  0  0  0  0
    2.5174   -2.3438    1.1004 F   0  0  0  0  0  0  0  0  0  0  0  0
    2.5438   -2.3349   -1.0702 F   0  0  0  0  0  0  0  0  0  0  0  0
   -4.1285   -2.9834    0.4986 C   0  0  0  0  0  0  0  0  0  0  0  0
   -1.1449    4.8619   -0.2161 C   0  0  0  0  0  0  0  0  0  0  0  0
    1.2554    4.8737   -0.0266 C   0  0  0  0  0  0  0  0  0  0  0  0
   -5.9707   -0.3438   -1.2445 O   0  0  0  0  0  0  0  0  0  0  0  0
   -6.3690   -2.9550    0.0008 O   0  0  0  0  0  0  0  0  0  0  0  0
    0.0332    6.9662   -0.0818 C   0  0  0  0  0  0  0  0  0  0  0  0
   -5.7251    0.9394   -1.8042 C   0  0  0  0  0  0  0  0  0  0  0  0
   -7.5429   -2.3552   -0.5225 C   0  0  0  0  0  0  0  0  0  0  0  0
   -0.0646   -2.4795   -0.0394 H   0  0  0  0  0  0  0  0  0  0  0  0
   -3.3983    0.4654   -1.0465 H   0  0  0  0  0  0  0  0  0  0  0  0
    1.2770    3.3153    1.4945 H   0  0  0  0  0  0  0  0  0  0  0  0
    2.1839    2.9321    0.0165 H   0  0  0  0  0  0  0  0  0  0  0  0
   -1.3799    3.3120    1.2921 H   0  0  0  0  0  0  0  0  0  0  0  0
   -2.0496    2.9250   -0.3075 H   0  0  0  0  0  0  0  0  0  0  0  0
   -2.0611   -3.0533    1.0191 H   0  0  0  0  0  0  0  0  0  0  0  0
   -4.3230   -3.9555    0.9467 H   0  0  0  0  0  0  0  0  0  0  0  0
   -2.0768    5.3445    0.1018 H   0  0  0  0  0  0  0  0  0  0  0  0
   -1.1081    4.9113   -1.3134 H   0  0  0  0  0  0  0  0  0  0  0  0
    1.3902    4.9285   -1.1158 H   0  0  0  0  0  0  0  0  0  0  0  0
    2.1180    5.3682    0.4358 H   0  0  0  0  0  0  0  0  0  0  0  0
    0.8753    7.5013    0.3698 H   0  0  0  0  0  0  0  0  0  0  0  0
    0.1115    7.0534   -1.1714 H   0  0  0  0  0  0  0  0  0  0  0  0
   -0.8776    7.4844    0.2398 H   0  0  0  0  0  0  0  0  0  0  0  0
   -5.4231    1.6546   -1.0323 H   0  0  0  0  0  0  0  0  0  0  0  0
   -4.9881    0.8872   -2.6122 H   0  0  0  0  0  0  0  0  0  0  0  0
   -6.6641    1.2958   -2.2386 H   0  0  0  0  0  0  0  0  0  0  0  0
   -7.7591   -1.4001   -0.0336 H   0  0  0  0  0  0  0  0  0  0  0  0
   -7.4814   -2.2595   -1.6112 H   0  0  0  0  0  0  0  0  0  0  0  0
   -8.3817   -3.0225   -0.3019 H   0  0  0  0  0  0  0  0  0  0  0  0
  2  1  2  0  0  0  0
  3  1  1  0  0  0  0
  4  2  1  0  0  0  0
  5  4  1  0  0  0  0
  6  1  1  0  0  0  0
  7  3  2  0  0  0  0
  8  7  1  0  0  0  0
  8  4  2  0  0  0  0
  8 28  1  0  0  0  0
  9  7  1  0  0  0  0
 10 21  1  0  0  0  0
 10 22  1  0  0  0  0
 11  9  2  0  0  0  0
 11 29  1  0  0  0  0
 12 11  1  0  0  0  0
 13 20  1  0  0  0  0
 13 12  2  0  0  0  0
 14  6  1  0  0  0  0
 14 30  1  0  0  0  0
 14 31  1  0  0  0  0
 15  6  1  0  0  0  0
 15 32  1  0  0  0  0
 15 33  1  0  0  0  0
 16  9  1  0  0  0  0
 16 34  1  0  0  0  0
 17  5  1  0  0  0  0
 18  5  1  0  0  0  0
 19  5  1  0  0  0  0
 20 16  2  0  0  0  0
 20 35  1  0  0  0  0
 21 15  1  0  0  0  0
 21 36  1  0  0  0  0
 21 37  1  0  0  0  0
 22 14  1  0  0  0  0
 22 38  1  0  0  0  0
 22 39  1  0  0  0  0
 23 12  1  0  0  0  0
 24 13  1  0  0  0  0
 25 10  1  0  0  0  0
 25 40  1  0  0  0  0
 25 41  1  0  0  0  0
 25 42  1  0  0  0  0
 26 23  1  0  0  0  0
 26 43  1  0  0  0  0
 26 44  1  0  0  0  0
 26 45  1  0  0  0  0
 27 24  1  0  0  0  0
 27 46  1  0  0  0  0
 27 47  1  0  0  0  0
 27 48  1  0  0  0  0
M  END
>  <Mol_ID>
8959

>  <Formula>
C18H21F3N4O2

>  <MolWeight>
382.3801496

>  <Cat>
P2518

>  <Name>
WAY-327150

>  <Synonyms>
N/A

>  <Target>
EP2 receptor

>  <Form>
free base

>  <CAS>
725695-54-5

>  <URL>
N/A

$$$$
