WAY-604603
 OpenBabel08302521393D

 32 34  0  0  0  0  0  0  0  0999 V2000
   -0.9642   -0.6047    0.0011 C   0  0  0  0  0  0  0  0  0  0  0  0
   -0.3404    0.6359    0.0075 C   0  0  0  0  0  0  0  0  0  0  0  0
   -0.0155   -1.7339    0.0049 C   0  0  0  0  0  0  0  0  0  0  0  0
   -2.3462   -0.6994    0.0041 C   0  0  0  0  0  0  0  0  0  0  0  0
    1.3898    0.4512    0.0077 S   0  0  0  0  0  0  0  0  0  0  0  0
   -1.0443    1.8257    0.0076 C   0  0  0  0  0  0  0  0  0  0  0  0
    1.2949   -1.2244    0.0209 N   0  0  0  0  0  0  0  0  0  0  0  0
   -0.3191   -2.9080    0.0445 O   0  0  0  0  0  0  0  0  0  0  0  0
   -3.0841    0.4886    0.0054 C   0  0  0  0  0  0  0  0  0  0  0  0
    1.8999    0.8802    1.2926 O   0  0  0  0  0  0  0  0  0  0  0  0
    1.9087    0.9350   -1.2438 O   0  0  0  0  0  0  0  0  0  0  0  0
   -2.4386    1.7401    0.0059 C   0  0  0  0  0  0  0  0  0  0  0  0
    2.5235   -2.0034    0.0190 C   0  0  0  0  0  0  0  0  0  0  0  0
    2.9798   -2.2853   -1.3968 C   0  0  0  0  0  0  0  0  0  0  0  0
    4.2148   -3.0922   -1.5826 C   0  0  0  0  0  0  0  0  0  0  0  0
    2.3608   -1.9034   -2.3886 O   0  0  0  0  0  0  0  0  0  0  0  0
    4.9568   -3.5573   -0.4904 C   0  0  0  0  0  0  0  0  0  0  0  0
    4.6174   -3.4076   -2.8863 C   0  0  0  0  0  0  0  0  0  0  0  0
    6.0870   -4.3457   -0.7049 C   0  0  0  0  0  0  0  0  0  0  0  0
    5.7391   -4.2087   -3.0949 C   0  0  0  0  0  0  0  0  0  0  0  0
    6.4708   -4.6795   -2.0080 C   0  0  0  0  0  0  0  0  0  0  0  0
   -2.8398   -1.6674    0.0037 H   0  0  0  0  0  0  0  0  0  0  0  0
   -0.5371    2.7854    0.0056 H   0  0  0  0  0  0  0  0  0  0  0  0
   -4.1721    0.4464    0.0037 H   0  0  0  0  0  0  0  0  0  0  0  0
   -3.0357    2.6507    0.0035 H   0  0  0  0  0  0  0  0  0  0  0  0
    3.2928   -1.4654    0.5801 H   0  0  0  0  0  0  0  0  0  0  0  0
    2.3587   -2.9641    0.5229 H   0  0  0  0  0  0  0  0  0  0  0  0
    4.6668   -3.3383    0.5312 H   0  0  0  0  0  0  0  0  0  0  0  0
    4.0511   -3.0377   -3.7398 H   0  0  0  0  0  0  0  0  0  0  0  0
    6.6596   -4.7151    0.1418 H   0  0  0  0  0  0  0  0  0  0  0  0
    6.0370   -4.4709   -4.1068 H   0  0  0  0  0  0  0  0  0  0  0  0
    7.3374   -5.3123   -2.1668 H   0  0  0  0  0  0  0  0  0  0  0  0
  1  2  2  0  0  0  0
  1  3  1  0  0  0  0
  1  4  1  0  0  0  0
  2  5  1  0  0  0  0
  2  6  1  0  0  0  0
  3  7  1  0  0  0  0
  3  8  2  0  0  0  0
  4  9  2  0  0  0  0
  4 22  1  0  0  0  0
  5 10  2  0  0  0  0
  5 11  2  0  0  0  0
  5  7  1  0  0  0  0
  6 12  2  0  0  0  0
  6 23  1  0  0  0  0
  7 13  1  0  0  0  0
  9 12  1  0  0  0  0
  9 24  1  0  0  0  0
 12 25  1  0  0  0  0
 13 14  1  0  0  0  0
 13 26  1  0  0  0  0
 13 27  1  0  0  0  0
 14 15  1  0  0  0  0
 14 16  2  0  0  0  0
 15 17  2  0  0  0  0
 15 18  1  0  0  0  0
 17 19  1  0  0  0  0
 17 28  1  0  0  0  0
 18 20  2  0  0  0  0
 18 29  1  0  0  0  0
 19 21  2  0  0  0  0
 19 30  1  0  0  0  0
 20 21  1  0  0  0  0
 20 31  1  0  0  0  0
 21 32  1  0  0  0  0
M  END
>  <Mol_ID>
8122

>  <Formula>
C15H10ClNO4S

>  <MolWeight>
335.7622

>  <Cat>
P2835

>  <Name>
WAY-604603

>  <Synonyms>
N/A

>  <Target>
Anti-infection

>  <Form>
free base

>  <CAS>
41335-62-0

>  <URL>
N/A

$$$$
