WAY-343972
 OpenBabel08302521403D

 35 36  0  0  0  0  0  0  0  0999 V2000
    1.8707    0.6386    0.0594 C   0  0  0  0  0  0  0  0  0  0  0  0
    1.0674    1.9154   -0.0640 C   0  0  3  0  0  0  0  0  0  0  0  0
    1.2625   -0.5678    0.1107 C   0  0  0  0  0  0  0  0  0  0  0  0
    3.3527    0.8163    0.1644 C   0  0  0  0  0  0  0  0  0  0  0  0
   -0.9401    0.4539   -0.0651 C   0  0  0  0  0  0  0  0  0  0  0  0
   -0.1166   -0.6206   -0.0117 N   0  0  0  0  0  0  0  0  0  0  0  0
   -0.3636    1.6718    0.0108 N   0  0  0  0  0  0  0  0  0  0  0  0
    1.3478    2.9878    0.9696 C   0  0  0  0  0  0  0  0  0  0  0  0
    3.7481    2.0096   -0.3745 O   0  0  0  0  0  0  0  0  0  0  0  0
    1.2155    4.6436    0.5312 S   0  0  0  0  0  0  0  0  0  0  0  0
   -2.5876    0.2834   -0.1816 S   0  0  0  0  0  0  0  0  0  0  0  0
    4.1029    0.0141    0.6977 O   0  0  0  0  0  0  0  0  0  0  0  0
    1.7383    2.8482    2.2905 C   0  0  0  0  0  0  0  0  0  0  0  0
    1.7434    5.1591    2.0710 C   0  0  0  0  0  0  0  0  0  0  0  0
    1.9931    4.1016    2.9156 C   0  0  0  0  0  0  0  0  0  0  0  0
    1.8745   -1.9341    0.2666 C   0  0  0  0  0  0  0  0  0  0  0  0
    5.1342    2.3768   -0.1732 C   0  0  0  0  0  0  0  0  0  0  0  0
    6.0058    1.7058   -1.2264 C   0  0  0  0  0  0  0  0  0  0  0  0
    5.2866    3.8947   -0.2890 C   0  0  0  0  0  0  0  0  0  0  0  0
    1.2361    2.3166   -1.0723 H   0  0  0  0  0  0  0  0  0  0  0  0
   -0.5813   -1.5243   -0.0221 H   0  0  0  0  0  0  0  0  0  0  0  0
   -0.9838    2.4698   -0.0247 H   0  0  0  0  0  0  0  0  0  0  0  0
    1.8718    1.8890    2.7789 H   0  0  0  0  0  0  0  0  0  0  0  0
    1.8474    6.2139    2.2819 H   0  0  0  0  0  0  0  0  0  0  0  0
    2.3428    4.2212    3.9335 H   0  0  0  0  0  0  0  0  0  0  0  0
    1.5673   -2.3576    1.2298 H   0  0  0  0  0  0  0  0  0  0  0  0
    1.5063   -2.6113   -0.5169 H   0  0  0  0  0  0  0  0  0  0  0  0
    2.9608   -1.9567    0.2209 H   0  0  0  0  0  0  0  0  0  0  0  0
    5.4482    2.0854    0.8365 H   0  0  0  0  0  0  0  0  0  0  0  0
    5.7123    2.0245   -2.2318 H   0  0  0  0  0  0  0  0  0  0  0  0
    7.0612    1.9554   -1.0766 H   0  0  0  0  0  0  0  0  0  0  0  0
    5.8993    0.6175   -1.1948 H   0  0  0  0  0  0  0  0  0  0  0  0
    5.0524    4.2464   -1.2998 H   0  0  0  0  0  0  0  0  0  0  0  0
    4.6139    4.4200    0.3958 H   0  0  0  0  0  0  0  0  0  0  0  0
    6.3130    4.1994   -0.0575 H   0  0  0  0  0  0  0  0  0  0  0  0
  2  1  1  0  0  0  0
  2 20  1  0  0  0  0
  3  1  2  0  0  0  0
  4  1  1  0  0  0  0
  5  6  1  0  0  0  0
  6  3  1  0  0  0  0
  6 21  1  0  0  0  0
  7  2  1  0  0  0  0
  7  5  1  0  0  0  0
  7 22  1  0  0  0  0
  8  2  1  0  0  0  0
  9  4  1  0  0  0  0
 10  8  1  0  0  0  0
 11  5  2  0  0  0  0
 12  4  2  0  0  0  0
 13  8  2  0  0  0  0
 13 23  1  0  0  0  0
 14 10  1  0  0  0  0
 14 24  1  0  0  0  0
 15 13  1  0  0  0  0
 15 14  2  0  0  0  0
 15 25  1  0  0  0  0
 16  3  1  0  0  0  0
 16 26  1  0  0  0  0
 16 27  1  0  0  0  0
 16 28  1  0  0  0  0
 17  9  1  0  0  0  0
 17 29  1  0  0  0  0
 18 17  1  0  0  0  0
 18 30  1  0  0  0  0
 18 31  1  0  0  0  0
 18 32  1  0  0  0  0
 19 17  1  0  0  0  0
 19 33  1  0  0  0  0
 19 34  1  0  0  0  0
 19 35  1  0  0  0  0
M  END
>  <Mol_ID>
8307

>  <Formula>
C13H16N2O2S2

>  <MolWeight>
296.40834

>  <Cat>
P2732

>  <Name>
WAY-343972

>  <Synonyms>
N/A

>  <Target>
A2B Adenosine Receptor,Anti-infection

>  <Form>
free base

>  <CAS>
518982-84-8

>  <URL>
N/A

$$$$
