WAY-638127
 OpenBabel08302521423D

 32 33  0  0  0  0  0  0  0  0999 V2000
   -3.6501    2.2986    1.6346 C   0  0  0  0  0  0  0  0  0  0  0  0
   -4.5686    2.9991    0.8958 O   0  0  0  0  0  0  0  0  0  0  0  0
   -4.2902    1.7241    2.7243 C   0  0  0  0  0  0  0  0  0  0  0  0
   -2.2746    2.1942    1.1926 C   0  0  0  0  0  0  0  0  0  0  0  0
   -5.7636    2.8666    1.5229 C   0  0  0  0  0  0  0  0  0  0  0  0
   -5.6557    2.1053    2.6607 C   0  0  0  0  0  0  0  0  0  0  0  0
   -1.7310    3.1594    0.3763 N   0  0  0  0  0  0  0  0  0  0  0  0
   -1.5434    1.2629    1.5315 O   0  0  0  0  0  0  0  0  0  0  0  0
   -6.8810    3.5118    0.9079 N   0  3  0  0  0  0  0  0  0  0  0  0
   -2.2977    4.4349   -0.0366 C   0  0  0  0  0  0  0  0  0  0  0  0
   -7.9817    3.3178    1.4422 O   0  0  0  0  0  0  0  0  0  0  0  0
   -6.6720    4.2159   -0.0848 O   0  5  0  0  0  0  0  0  0  0  0  0
   -3.0428    4.4212   -1.3516 C   0  0  0  0  0  0  0  0  0  0  0  0
   -3.7781    5.5131   -1.8537 C   0  0  0  0  0  0  0  0  0  0  0  0
   -2.9991    3.2442   -2.1422 C   0  0  0  0  0  0  0  0  0  0  0  0
   -4.4389    5.3853   -3.0921 C   0  0  0  0  0  0  0  0  0  0  0  0
   -4.0050    6.7567   -1.3374 O   0  0  0  0  0  0  0  0  0  0  0  0
   -3.6606    3.1391   -3.3657 C   0  0  0  0  0  0  0  0  0  0  0  0
   -4.3844    4.2156   -3.8440 C   0  0  0  0  0  0  0  0  0  0  0  0
   -3.3954    7.2213   -0.1531 C   0  0  0  0  0  0  0  0  0  0  0  0
   -3.8121    1.1029    3.4717 H   0  0  0  0  0  0  0  0  0  0  0  0
   -6.4550    1.8489    3.3427 H   0  0  0  0  0  0  0  0  0  0  0  0
   -0.7874    2.9472    0.0818 H   0  0  0  0  0  0  0  0  0  0  0  0
   -2.9372    4.7779    0.7771 H   0  0  0  0  0  0  0  0  0  0  0  0
   -1.4442    5.1148   -0.1251 H   0  0  0  0  0  0  0  0  0  0  0  0
   -2.4512    2.3665   -1.8054 H   0  0  0  0  0  0  0  0  0  0  0  0
   -5.0175    6.2257   -3.4727 H   0  0  0  0  0  0  0  0  0  0  0  0
   -3.6121    2.2148   -3.9347 H   0  0  0  0  0  0  0  0  0  0  0  0
   -4.9106    4.1504   -4.7915 H   0  0  0  0  0  0  0  0  0  0  0  0
   -3.7403    6.6651    0.7203 H   0  0  0  0  0  0  0  0  0  0  0  0
   -2.3063    7.2316   -0.2413 H   0  0  0  0  0  0  0  0  0  0  0  0
   -3.7187    8.2575   -0.0055 H   0  0  0  0  0  0  0  0  0  0  0  0
  1  2  1  0  0  0  0
  1  3  2  0  0  0  0
  1  4  1  0  0  0  0
  2  5  1  0  0  0  0
  3  6  1  0  0  0  0
  3 21  1  0  0  0  0
  4  7  1  0  0  0  0
  4  8  2  0  0  0  0
  5  9  1  0  0  0  0
  5  6  2  0  0  0  0
  6 22  1  0  0  0  0
  7 10  1  0  0  0  0
  7 23  1  0  0  0  0
  9 11  2  0  0  0  0
  9 12  1  0  0  0  0
 10 13  1  0  0  0  0
 10 24  1  0  0  0  0
 10 25  1  0  0  0  0
 13 14  2  0  0  0  0
 13 15  1  0  0  0  0
 14 16  1  0  0  0  0
 14 17  1  0  0  0  0
 15 18  2  0  0  0  0
 15 26  1  0  0  0  0
 16 19  2  0  0  0  0
 16 27  1  0  0  0  0
 17 20  1  0  0  0  0
 18 19  1  0  0  0  0
 18 28  1  0  0  0  0
 19 29  1  0  0  0  0
 20 30  1  0  0  0  0
 20 31  1  0  0  0  0
 20 32  1  0  0  0  0
M  CHG  2   9   1  12  -1
M  END
>  <Mol_ID>
8504

>  <Formula>
C13H12N2O5

>  <MolWeight>
276.24478

>  <Cat>
P3030

>  <Name>
WAY-638127

>  <Synonyms>
N/A

>  <Target>
Anti-infection

>  <Form>
free base

>  <CAS>
313981-44-1

>  <URL>
N/A

$$$$
