WAY-327369
 OpenBabel08302521443D

 55 57  0  0  0  0  0  0  0  0999 V2000
    1.0825   -0.0594   -0.1540 S   0  0  0  0  0  0  0  0  0  0  0  0
   -0.2069    3.9604   -4.8497 C   0  0  0  0  0  0  0  0  0  0  0  0
    0.2591    4.0626   -3.5409 C   0  0  0  0  0  0  0  0  0  0  0  0
   -0.5338    2.6533   -5.1188 O   0  0  0  0  0  0  0  0  0  0  0  0
    0.2179    2.7404   -2.9885 C   0  0  0  0  0  0  0  0  0  0  0  0
   -0.3717    4.9545   -5.9033 C   0  0  0  0  0  0  0  0  0  0  0  0
    0.4355    0.7538   -1.6117 C   0  0  0  0  0  0  0  0  0  0  0  0
   -0.2823    1.9264   -3.9963 C   0  0  0  0  0  0  0  0  0  0  0  0
    0.5796    2.1467   -1.7568 C   0  0  0  0  0  0  0  0  0  0  0  0
   -0.2806   -0.6867    0.7134 N   0  0  0  0  0  0  0  0  0  0  0  0
   -0.4474    4.4291   -7.1795 N   0  0  0  0  0  0  0  0  0  0  0  0
    1.6943    0.9545    0.6741 O   0  0  0  0  0  0  0  0  0  0  0  0
    1.8542   -1.1909   -0.6331 O   0  0  0  0  0  0  0  0  0  0  0  0
   -0.4053    6.1658   -5.6999 O   0  0  0  0  0  0  0  0  0  0  0  0
   -0.0394   -0.0302   -2.6734 C   0  0  0  0  0  0  0  0  0  0  0  0
   -0.4566    0.5504   -3.8751 C   0  0  0  0  0  0  0  0  0  0  0  0
    0.7585    5.2802   -2.8516 C   0  0  0  0  0  0  0  0  0  0  0  0
   -0.4254    5.2500   -8.3930 C   0  0  0  0  0  0  0  0  0  0  0  0
   -1.1099   -1.6764   -0.0362 C   0  0  0  0  0  0  0  0  0  0  0  0
    0.0587   -1.0842    2.1234 C   0  0  0  0  0  0  0  0  0  0  0  0
   -1.0430    4.4533   -9.5509 C   0  0  0  0  0  0  0  0  0  0  0  0
    1.0036    5.7410   -8.6968 C   0  0  0  0  0  0  0  0  0  0  0  0
   -2.3189   -2.2013    0.7225 C   0  0  0  0  0  0  0  0  0  0  0  0
    1.0948   -2.1954    2.2339 C   0  0  0  0  0  0  0  0  0  0  0  0
   -0.8596    5.1231  -10.9077 C   0  0  0  0  0  0  0  0  0  0  0  0
    1.1917    6.3098  -10.1064 C   0  0  0  0  0  0  0  0  0  0  0  0
    0.6125    5.4010  -11.1812 C   0  0  0  0  0  0  0  0  0  0  0  0
    1.0157    2.7499   -0.9647 H   0  0  0  0  0  0  0  0  0  0  0  0
   -0.2793    3.4314   -7.2570 H   0  0  0  0  0  0  0  0  0  0  0  0
   -0.0691   -1.1141   -2.5835 H   0  0  0  0  0  0  0  0  0  0  0  0
   -0.8499   -0.0459   -4.6908 H   0  0  0  0  0  0  0  0  0  0  0  0
    0.1591    5.4836   -1.9584 H   0  0  0  0  0  0  0  0  0  0  0  0
    1.7998    5.1374   -2.5433 H   0  0  0  0  0  0  0  0  0  0  0  0
    0.7240    6.1670   -3.4880 H   0  0  0  0  0  0  0  0  0  0  0  0
   -1.0511    6.1329   -8.2087 H   0  0  0  0  0  0  0  0  0  0  0  0
   -1.5292   -1.1691   -0.9070 H   0  0  0  0  0  0  0  0  0  0  0  0
   -0.4953   -2.5158   -0.3778 H   0  0  0  0  0  0  0  0  0  0  0  0
    0.4085   -0.1982    2.6639 H   0  0  0  0  0  0  0  0  0  0  0  0
   -0.8491   -1.3888    2.6539 H   0  0  0  0  0  0  0  0  0  0  0  0
   -0.6008    3.4496   -9.5906 H   0  0  0  0  0  0  0  0  0  0  0  0
   -2.1138    4.3094   -9.3620 H   0  0  0  0  0  0  0  0  0  0  0  0
    1.2840    6.5137   -7.9703 H   0  0  0  0  0  0  0  0  0  0  0  0
    1.7158    4.9181   -8.5516 H   0  0  0  0  0  0  0  0  0  0  0  0
   -2.0273   -2.8374    1.5600 H   0  0  0  0  0  0  0  0  0  0  0  0
   -2.9388   -1.3804    1.0974 H   0  0  0  0  0  0  0  0  0  0  0  0
   -2.9375   -2.8098    0.0527 H   0  0  0  0  0  0  0  0  0  0  0  0
    0.7867   -3.0976    1.6975 H   0  0  0  0  0  0  0  0  0  0  0  0
    2.0695   -1.8841    1.8485 H   0  0  0  0  0  0  0  0  0  0  0  0
    1.2436   -2.4633    3.2852 H   0  0  0  0  0  0  0  0  0  0  0  0
   -1.2636    4.4752  -11.6946 H   0  0  0  0  0  0  0  0  0  0  0  0
   -1.4253    6.0605  -10.9420 H   0  0  0  0  0  0  0  0  0  0  0  0
    2.2620    6.4608  -10.2953 H   0  0  0  0  0  0  0  0  0  0  0  0
    0.7189    7.2959  -10.1710 H   0  0  0  0  0  0  0  0  0  0  0  0
    1.1697    4.4569  -11.2101 H   0  0  0  0  0  0  0  0  0  0  0  0
    0.7244    5.8708  -12.1628 H   0  0  0  0  0  0  0  0  0  0  0  0
  2  3  2  0  0  0  0
  3  5  1  0  0  0  0
  4  8  1  0  0  0  0
  4  2  1  0  0  0  0
  5  9  2  0  0  0  0
  5  8  1  0  0  0  0
  6  2  1  0  0  0  0
  7  1  1  0  0  0  0
  8 16  2  0  0  0  0
  9  7  1  0  0  0  0
  9 28  1  0  0  0  0
 10  1  1  0  0  0  0
 11  6  1  0  0  0  0
 11 29  1  0  0  0  0
 12  1  2  0  0  0  0
 13  1  2  0  0  0  0
 14  6  2  0  0  0  0
 15  7  2  0  0  0  0
 15 30  1  0  0  0  0
 16 15  1  0  0  0  0
 16 31  1  0  0  0  0
 17  3  1  0  0  0  0
 17 32  1  0  0  0  0
 17 33  1  0  0  0  0
 17 34  1  0  0  0  0
 18 11  1  0  0  0  0
 18 35  1  0  0  0  0
 19 10  1  0  0  0  0
 19 36  1  0  0  0  0
 19 37  1  0  0  0  0
 20 10  1  0  0  0  0
 20 38  1  0  0  0  0
 20 39  1  0  0  0  0
 21 18  1  0  0  0  0
 21 40  1  0  0  0  0
 21 41  1  0  0  0  0
 22 18  1  0  0  0  0
 22 42  1  0  0  0  0
 22 43  1  0  0  0  0
 23 19  1  0  0  0  0
 23 44  1  0  0  0  0
 23 45  1  0  0  0  0
 23 46  1  0  0  0  0
 24 20  1  0  0  0  0
 24 47  1  0  0  0  0
 24 48  1  0  0  0  0
 24 49  1  0  0  0  0
 25 21  1  0  0  0  0
 25 27  1  0  0  0  0
 25 50  1  0  0  0  0
 25 51  1  0  0  0  0
 26 22  1  0  0  0  0
 26 52  1  0  0  0  0
 26 53  1  0  0  0  0
 27 26  1  0  0  0  0
 27 54  1  0  0  0  0
 27 55  1  0  0  0  0
M  END
>  <Mol_ID>
8969

>  <Formula>
C20H28N2O4S

>  <MolWeight>
392.51232

>  <Cat>
P2529

>  <Name>
WAY-327369

>  <Synonyms>
N/A

>  <Target>
calcium channel

>  <Form>
free base

>  <CAS>
687569-00-2

>  <URL>
N/A

$$$$
