WAY-638449
 OpenBabel08302521423D

 61 66  0  0  0  0  0  0  0  0999 V2000
    5.0127    3.0206   -4.5038 N   0  0  0  0  0  0  0  0  0  0  0  0
    5.4811    2.4676   -6.7454 C   0  0  3  0  0  0  0  0  0  0  0  0
    4.4626    2.4352   -5.6031 C   0  0  0  0  0  0  0  0  0  0  0  0
    6.0809    3.7754   -4.9082 C   0  0  0  0  0  0  0  0  0  0  0  0
    6.3252    3.5159   -6.2500 N   0  0  0  0  0  0  0  0  0  0  0  0
   -1.7084    3.0175    1.8525 N   0  0  0  0  0  0  0  0  0  0  0  0
   -1.8205    2.8894    0.4646 C   0  0  0  0  0  0  0  0  0  0  0  0
   -2.9575    3.4768    0.1233 N   0  0  0  0  0  0  0  0  0  0  0  0
   -3.6406    3.8432    1.2461 N   0  0  0  0  0  0  0  0  0  0  0  0
   -2.9279    3.5007    2.2961 C   0  0  0  0  0  0  0  0  0  0  0  0
    6.2070    1.1734   -6.9574 C   0  0  0  0  0  0  0  0  0  0  0  0
    4.2589    3.3378   -3.3104 C   0  0  0  0  0  0  0  0  0  0  0  0
    3.4847    2.1839   -2.6316 C   0  0  0  0  0  0  0  0  0  0  0  0
    4.7572    2.7223   -8.0789 C   0  0  0  0  0  0  0  0  0  0  0  0
   -0.8914    2.3201   -0.5470 C   0  0  0  0  0  0  0  0  0  0  0  0
    6.6769    4.6243   -4.2643 O   0  0  0  0  0  0  0  0  0  0  0  0
    3.3183    2.0024   -5.6696 O   0  0  0  0  0  0  0  0  0  0  0  0
    2.2714    1.8509   -3.2457 N   0  0  0  0  0  0  0  0  0  0  0  0
    5.8017    0.5685   -8.1518 C   0  0  0  0  0  0  0  0  0  0  0  0
    4.8437    1.4289   -8.9103 C   0  0  0  0  0  0  0  0  0  0  0  0
    3.8705    1.7312   -1.5540 O   0  0  0  0  0  0  0  0  0  0  0  0
    0.1054    1.3861   -0.2622 C   0  0  0  0  0  0  0  0  0  0  0  0
   -1.0180    2.7046   -1.9034 C   0  0  0  0  0  0  0  0  0  0  0  0
    1.0941    1.6957   -2.4669 C   0  0  0  0  0  0  0  0  0  0  0  0
   -0.5448    2.8375    2.7063 C   0  0  0  0  0  0  0  0  0  0  0  0
   -0.0550    2.3652   -2.8721 C   0  0  0  0  0  0  0  0  0  0  0  0
    1.0968    1.0839   -1.2135 C   0  0  0  0  0  0  0  0  0  0  0  0
   -3.3949    3.6859    3.7100 C   0  0  0  0  0  0  0  0  0  0  0  0
    7.1391    0.5466   -6.1362 C   0  0  0  0  0  0  0  0  0  0  0  0
    6.2646   -0.6996   -8.5176 C   0  0  0  0  0  0  0  0  0  0  0  0
   -0.4310    3.8791    3.8380 C   0  0  0  0  0  0  0  0  0  0  0  0
   -2.6243    2.9405    4.7932 C   0  0  0  0  0  0  0  0  0  0  0  0
    7.6061   -0.7184   -6.4986 C   0  0  0  0  0  0  0  0  0  0  0  0
    7.1583   -1.3415   -7.6703 C   0  0  0  0  0  0  0  0  0  0  0  0
   -1.2539    3.5439    5.0857 C   0  0  0  0  0  0  0  0  0  0  0  0
    7.1432    3.8945   -6.7124 H   0  0  0  0  0  0  0  0  0  0  0  0
    4.9431    3.7503   -2.5595 H   0  0  0  0  0  0  0  0  0  0  0  0
    3.5543    4.1376   -3.5577 H   0  0  0  0  0  0  0  0  0  0  0  0
    5.1853    3.5667   -8.6303 H   0  0  0  0  0  0  0  0  0  0  0  0
    3.6962    2.9677   -7.9362 H   0  0  0  0  0  0  0  0  0  0  0  0
    2.1515    2.1971   -4.1987 H   0  0  0  0  0  0  0  0  0  0  0  0
    5.2195    1.6423   -9.9147 H   0  0  0  0  0  0  0  0  0  0  0  0
    3.8728    0.9304   -8.9765 H   0  0  0  0  0  0  0  0  0  0  0  0
    0.1628    0.9022    0.7066 H   0  0  0  0  0  0  0  0  0  0  0  0
   -1.8548    3.3317   -2.2135 H   0  0  0  0  0  0  0  0  0  0  0  0
    0.3454    2.9239    2.0779 H   0  0  0  0  0  0  0  0  0  0  0  0
   -0.5919    1.8197    3.1081 H   0  0  0  0  0  0  0  0  0  0  0  0
   -0.1640    2.7386   -3.8881 H   0  0  0  0  0  0  0  0  0  0  0  0
    1.8995    0.3987   -0.9485 H   0  0  0  0  0  0  0  0  0  0  0  0
   -3.4252    4.7566    3.9462 H   0  0  0  0  0  0  0  0  0  0  0  0
   -4.4340    3.3337    3.7499 H   0  0  0  0  0  0  0  0  0  0  0  0
    7.5059    1.0125   -5.2248 H   0  0  0  0  0  0  0  0  0  0  0  0
    5.9143   -1.1623   -9.4249 H   0  0  0  0  0  0  0  0  0  0  0  0
   -0.7278    4.8719    3.4737 H   0  0  0  0  0  0  0  0  0  0  0  0
    0.6162    3.9731    4.1500 H   0  0  0  0  0  0  0  0  0  0  0  0
   -2.5195    1.8802    4.5351 H   0  0  0  0  0  0  0  0  0  0  0  0
   -3.2062    2.9657    5.7252 H   0  0  0  0  0  0  0  0  0  0  0  0
    8.3180   -1.2384   -5.8600 H   0  0  0  0  0  0  0  0  0  0  0  0
    7.5023   -2.3389   -7.9214 H   0  0  0  0  0  0  0  0  0  0  0  0
   -0.6933    2.8472    5.7226 H   0  0  0  0  0  0  0  0  0  0  0  0
   -1.3771    4.4562    5.6862 H   0  0  0  0  0  0  0  0  0  0  0  0
  2  3  1  0  0  0  0
  2  5  1  0  0  0  0
  3  1  1  0  0  0  0
  4  1  1  0  0  0  0
  5  4  1  0  0  0  0
  5 36  1  0  0  0  0
  6  7  1  0  0  0  0
  7 15  1  0  0  0  0
  8  7  2  0  0  0  0
  9  8  1  0  0  0  0
 10  6  1  0  0  0  0
 10  9  2  0  0  0  0
 11  2  1  0  0  0  0
 12  1  1  0  0  0  0
 12 37  1  0  0  0  0
 12 38  1  0  0  0  0
 13 12  1  0  0  0  0
 14  2  1  0  0  0  0
 14 39  1  0  0  0  0
 14 40  1  0  0  0  0
 15 22  2  0  0  0  0
 15 23  1  0  0  0  0
 16  4  2  0  0  0  0
 17  3  2  0  0  0  0
 18 13  1  0  0  0  0
 18 41  1  0  0  0  0
 19 11  2  0  0  0  0
 19 20  1  0  0  0  0
 20 14  1  0  0  0  0
 20 42  1  0  0  0  0
 20 43  1  0  0  0  0
 21 13  2  0  0  0  0
 22 27  1  0  0  0  0
 22 44  1  0  0  0  0
 23 26  2  0  0  0  0
 23 45  1  0  0  0  0
 24 18  1  0  0  0  0
 25  6  1  0  0  0  0
 25 46  1  0  0  0  0
 25 47  1  0  0  0  0
 26 24  1  0  0  0  0
 26 48  1  0  0  0  0
 27 24  2  0  0  0  0
 27 49  1  0  0  0  0
 28 10  1  0  0  0  0
 28 50  1  0  0  0  0
 28 51  1  0  0  0  0
 29 11  1  0  0  0  0
 29 52  1  0  0  0  0
 30 19  1  0  0  0  0
 30 53  1  0  0  0  0
 31 25  1  0  0  0  0
 31 54  1  0  0  0  0
 31 55  1  0  0  0  0
 32 28  1  0  0  0  0
 32 56  1  0  0  0  0
 32 57  1  0  0  0  0
 33 29  2  0  0  0  0
 33 58  1  0  0  0  0
 34 33  1  0  0  0  0
 34 30  2  0  0  0  0
 34 59  1  0  0  0  0
 35 31  1  0  0  0  0
 35 32  1  0  0  0  0
 35 60  1  0  0  0  0
 35 61  1  0  0  0  0
M  END
>  <Mol_ID>
8515

>  <Formula>
C26H26N6O3

>  <MolWeight>
470.52304

>  <Cat>
P3041

>  <Name>
WAY-638449

>  <Synonyms>
N/A

>  <Target>
HpNikR

>  <Form>
free base

>  <CAS>
794563-97-6

>  <URL>
N/A

$$$$
