WAY-616463
 OpenBabel08302521453D

 24 25  0  0  0  0  0  0  0  0999 V2000
    1.0586   -0.0379   -0.2052 C   0  0  0  0  0  0  0  0  0  0  0  0
    0.4178    1.1812   -0.3625 N   0  0  0  0  0  0  0  0  0  0  0  0
    0.9369    2.4382   -0.2823 C   0  0  0  0  0  0  0  0  0  0  0  0
    0.1819   -1.1781    0.2010 C   0  0  0  0  0  0  0  0  0  0  0  0
    0.1251    3.4110   -0.0586 N   0  0  0  0  0  0  0  0  0  0  0  0
    2.6202    2.7806   -0.4287 S   0  0  0  0  0  0  0  0  0  0  0  0
    0.6333   -2.4805   -0.0536 C   0  0  0  0  0  0  0  0  0  0  0  0
    2.2454   -0.2515   -0.4181 O   0  0  0  0  0  0  0  0  0  0  0  0
   -1.0376   -0.9971    0.8708 C   0  0  0  0  0  0  0  0  0  0  0  0
    0.8845    4.6759    0.0309 C   0  0  0  0  0  0  0  0  0  0  0  0
    2.3559    4.3978    0.3052 C   0  0  0  0  0  0  0  0  0  0  0  0
   -0.1322   -3.5838    0.3306 C   0  0  0  0  0  0  0  0  0  0  0  0
   -1.8027   -2.1031    1.2479 C   0  0  0  0  0  0  0  0  0  0  0  0
   -1.3517   -3.3942    0.9752 C   0  0  0  0  0  0  0  0  0  0  0  0
   -0.5855    1.2090   -0.2887 H   0  0  0  0  0  0  0  0  0  0  0  0
    1.5894   -2.6412   -0.5490 H   0  0  0  0  0  0  0  0  0  0  0  0
   -1.4036   -0.0131    1.1453 H   0  0  0  0  0  0  0  0  0  0  0  0
    0.4712    5.2875    0.8409 H   0  0  0  0  0  0  0  0  0  0  0  0
    0.7541    5.2401   -0.8996 H   0  0  0  0  0  0  0  0  0  0  0  0
    3.0080    5.1605   -0.1269 H   0  0  0  0  0  0  0  0  0  0  0  0
    2.5478    4.3296    1.3801 H   0  0  0  0  0  0  0  0  0  0  0  0
    0.2303   -4.5880    0.1311 H   0  0  0  0  0  0  0  0  0  0  0  0
   -2.7443   -1.9578    1.7705 H   0  0  0  0  0  0  0  0  0  0  0  0
   -1.9449   -4.2543    1.2789 H   0  0  0  0  0  0  0  0  0  0  0  0
  2  1  1  0  0  0  0
  2 15  1  0  0  0  0
  3  2  1  0  0  0  0
  4  1  1  0  0  0  0
  5  3  2  0  0  0  0
  6  3  1  0  0  0  0
  7  4  2  0  0  0  0
  7 16  1  0  0  0  0
  8  1  2  0  0  0  0
  9  4  1  0  0  0  0
  9 17  1  0  0  0  0
 10  5  1  0  0  0  0
 10 11  1  0  0  0  0
 10 18  1  0  0  0  0
 10 19  1  0  0  0  0
 11  6  1  0  0  0  0
 11 20  1  0  0  0  0
 11 21  1  0  0  0  0
 12  7  1  0  0  0  0
 12 14  2  0  0  0  0
 12 22  1  0  0  0  0
 13  9  2  0  0  0  0
 13 23  1  0  0  0  0
 14 13  1  0  0  0  0
 14 24  1  0  0  0  0
M  END
>  <Mol_ID>
9332

>  <Formula>
C10H9ClN2OS

>  <MolWeight>
240.70926

>  <Cat>
P2922

>  <Name>
WAY-616463

>  <Synonyms>
N/A

>  <Target>
others

>  <Form>
free base

>  <CAS>
67024-10-6

>  <URL>
N/A

$$$$
