WAY-224289
 OpenBabel08302521403D

 19 20  0  0  0  0  0  0  0  0999 V2000
   -0.9819   -0.0114   -0.5496 N   0  0  0  0  0  0  0  0  0  0  0  0
   -0.3136   -1.0673    0.0209 C   0  0  0  0  0  0  0  0  0  0  0  0
    0.7742   -0.5945    0.6033 N   0  0  0  0  0  0  0  0  0  0  0  0
   -0.2359    1.0953   -0.2934 C   0  0  0  0  0  0  0  0  0  0  0  0
    0.8295    0.7668    0.3905 N   0  0  0  0  0  0  0  0  0  0  0  0
   -0.7685   -2.4542    0.0043 C   0  0  0  0  0  0  0  0  0  0  0  0
   -1.5748   -2.9591   -1.0249 C   0  0  0  0  0  0  0  0  0  0  0  0
   -0.6999    2.6640   -0.8215 S   0  0  0  0  0  0  0  0  0  0  0  0
   -1.9802   -4.2961   -1.0059 C   0  0  0  0  0  0  0  0  0  0  0  0
   -3.0539   -4.9648   -2.4124 Br  0  0  0  0  0  0  0  0  0  0  0  0
   -0.3770   -3.3186    1.0389 C   0  0  0  0  0  0  0  0  0  0  0  0
   -0.7925   -4.6527    1.0563 C   0  0  0  0  0  0  0  0  0  0  0  0
   -1.5974   -5.1436    0.0309 C   0  0  0  0  0  0  0  0  0  0  0  0
   -1.8635   -0.0469   -1.0340 H   0  0  0  0  0  0  0  0  0  0  0  0
   -1.8692   -2.3309   -1.8605 H   0  0  0  0  0  0  0  0  0  0  0  0
   -1.9185    2.3953   -1.3059 H   0  0  0  0  0  0  0  0  0  0  0  0
    0.2583   -2.9507    1.8445 H   0  0  0  0  0  0  0  0  0  0  0  0
   -0.4822   -5.3063    1.8679 H   0  0  0  0  0  0  0  0  0  0  0  0
   -1.9115   -6.1840    0.0456 H   0  0  0  0  0  0  0  0  0  0  0  0
  1 14  1  0  0  0  0
  2  1  1  0  0  0  0
  3  2  2  0  0  0  0
  4  1  1  0  0  0  0
  4  5  2  0  0  0  0
  5  3  1  0  0  0  0
  6  2  1  0  0  0  0
  7  6  2  0  0  0  0
  7  9  1  0  0  0  0
  7 15  1  0  0  0  0
  8  4  1  0  0  0  0
  8 16  1  0  0  0  0
  9 13  2  0  0  0  0
 10  9  1  0  0  0  0
 11  6  1  0  0  0  0
 11 17  1  0  0  0  0
 12 11  2  0  0  0  0
 12 18  1  0  0  0  0
 13 12  1  0  0  0  0
 13 19  1  0  0  0  0
M  END
>  <Mol_ID>
8299

>  <Formula>
C8H6BrN3S

>  <MolWeight>
256.12234

>  <Cat>
P2059

>  <Name>
WAY-224289

>  <Synonyms>
N/A

>  <Target>
tyrosinase

>  <Form>
free base

>  <CAS>
126651-85-2

>  <URL>
N/A

$$$$
