WAY-299184
 OpenBabel08302521413D

 37 40  0  0  0  0  0  0  0  0999 V2000
    1.5601   -1.1410    0.0487 C   0  0  0  0  0  0  0  0  0  0  0  0
    0.3418   -0.7366   -0.4665 N   0  0  0  0  0  0  0  0  0  0  0  0
    2.1100   -2.5253    0.1324 C   0  0  0  0  0  0  0  0  0  0  0  0
    2.1829    0.0358    0.4503 C   0  0  0  0  0  0  0  0  0  0  0  0
    0.2518    0.6476   -0.2802 C   0  0  0  0  0  0  0  0  0  0  0  0
   -0.7160   -1.4582   -1.0144 C   0  0  0  0  0  0  0  0  0  0  0  0
    1.6670   -3.5361   -0.6917 N   0  0  0  0  0  0  0  0  0  0  0  0
    3.0770   -2.9159    1.0341 C   0  0  0  0  0  0  0  0  0  0  0  0
    1.3606    1.1168    0.2484 N   0  0  0  0  0  0  0  0  0  0  0  0
    3.5507    0.2734    0.9717 C   0  0  0  0  0  0  0  0  0  0  0  0
   -0.8771    1.3408   -0.6173 N   0  0  0  0  0  0  0  0  0  0  0  0
   -1.8470   -0.8288   -1.3583 C   0  0  0  0  0  0  0  0  0  0  0  0
    2.3641   -4.6405   -0.5033 C   0  0  0  0  0  0  0  0  0  0  0  0
    3.5395   -4.5366    0.7513 S   0  0  0  0  0  0  0  0  0  0  0  0
   -1.8499    0.6397   -1.1089 C   0  0  0  0  0  0  0  0  0  0  0  0
    2.2422   -5.7941   -1.2036 N   0  0  0  0  0  0  0  0  0  0  0  0
    1.1423   -6.1447   -2.0024 C   0  0  0  0  0  0  0  0  0  0  0  0
    1.3346   -6.9295   -3.1485 C   0  0  0  0  0  0  0  0  0  0  0  0
   -0.1424   -5.6434   -1.7409 C   0  0  0  0  0  0  0  0  0  0  0  0
    0.2713   -7.1895   -4.0224 C   0  0  0  0  0  0  0  0  0  0  0  0
   -1.2120   -5.8977   -2.5960 C   0  0  0  0  0  0  0  0  0  0  0  0
   -0.9973   -6.6617   -3.7432 C   0  0  0  0  0  0  0  0  0  0  0  0
   -2.1110   -6.8897   -4.6698 N   0  3  0  0  0  0  0  0  0  0  0  0
   -1.8858   -7.5604   -5.6867 O   0  0  0  0  0  0  0  0  0  0  0  0
   -3.2104   -6.3927   -4.3836 O   0  5  0  0  0  0  0  0  0  0  0  0
   -0.5879   -2.5242   -1.1361 H   0  0  0  0  0  0  0  0  0  0  0  0
    3.5289   -2.3599    1.8391 H   0  0  0  0  0  0  0  0  0  0  0  0
    3.6677   -0.1623    1.9676 H   0  0  0  0  0  0  0  0  0  0  0  0
    4.2981   -0.1591    0.2991 H   0  0  0  0  0  0  0  0  0  0  0  0
    3.7572    1.3449    1.0550 H   0  0  0  0  0  0  0  0  0  0  0  0
   -2.7242   -1.3002   -1.7756 H   0  0  0  0  0  0  0  0  0  0  0  0
   -2.7848    1.1593   -1.3803 H   0  0  0  0  0  0  0  0  0  0  0  0
    2.9548   -6.5042   -1.0976 H   0  0  0  0  0  0  0  0  0  0  0  0
    2.3240   -7.3127   -3.3923 H   0  0  0  0  0  0  0  0  0  0  0  0
   -0.3225   -5.0474   -0.8485 H   0  0  0  0  0  0  0  0  0  0  0  0
    0.4494   -7.7841   -4.9169 H   0  0  0  0  0  0  0  0  0  0  0  0
   -2.1873   -5.4829   -2.3540 H   0  0  0  0  0  0  0  0  0  0  0  0
  1  2  1  0  0  0  0
  1  3  1  0  0  0  0
  1  4  2  0  0  0  0
  2  5  1  0  0  0  0
  2  6  1  0  0  0  0
  3  7  1  0  0  0  0
  3  8  2  0  0  0  0
  4  9  1  0  0  0  0
  4 10  1  0  0  0  0
  5 11  1  0  0  0  0
  5  9  2  0  0  0  0
  6 12  2  0  0  0  0
  6 26  1  0  0  0  0
  7 13  2  0  0  0  0
  8 14  1  0  0  0  0
  8 27  1  0  0  0  0
 10 28  1  0  0  0  0
 10 29  1  0  0  0  0
 10 30  1  0  0  0  0
 11 15  2  0  0  0  0
 12 15  1  0  0  0  0
 12 31  1  0  0  0  0
 13 16  1  0  0  0  0
 13 14  1  0  0  0  0
 15 32  1  0  0  0  0
 16 17  1  0  0  0  0
 16 33  1  0  0  0  0
 17 18  2  0  0  0  0
 17 19  1  0  0  0  0
 18 20  1  0  0  0  0
 18 34  1  0  0  0  0
 19 21  2  0  0  0  0
 19 35  1  0  0  0  0
 20 22  2  0  0  0  0
 20 36  1  0  0  0  0
 21 22  1  0  0  0  0
 21 37  1  0  0  0  0
 22 23  1  0  0  0  0
 23 24  2  0  0  0  0
 23 25  1  0  0  0  0
M  CHG  2  23   1  25  -1
M  END
>  <Mol_ID>
8357

>  <Formula>
C16H12N6O2S

>  <MolWeight>
352.37048

>  <Cat>
P2107

>  <Name>
WAY-299184

>  <Synonyms>
N/A

>  <Target>
others

>  <Form>
free base

>  <CAS>
333746-61-5

>  <URL>
N/A

$$$$
