WAY-353173
 OpenBabel08302521393D

 33 35  0  0  0  0  0  0  0  0999 V2000
   -3.0785   -2.9457    0.0467 C   0  0  0  0  0  0  0  0  0  0  0  0
   -4.1201   -2.0308   -0.0375 C   0  0  0  0  0  0  0  0  0  0  0  0
   -5.2983   -2.7316   -0.0404 N   0  0  0  0  0  0  0  0  0  0  0  0
   -3.6773   -4.2537    0.1136 C   0  0  0  0  0  0  0  0  0  0  0  0
    1.1094   -1.8299    0.5302 C   0  0  0  0  0  0  0  0  0  0  0  0
   -5.0618   -4.0822    0.0473 C   0  0  0  0  0  0  0  0  0  0  0  0
    2.5692   -1.7491    0.3834 C   0  0  0  0  0  0  0  0  0  0  0  0
    3.4443   -3.0443   -0.3348 S   0  0  0  0  0  0  0  0  0  0  0  0
   -0.7429   -3.4572    0.0953 N   0  0  0  0  0  0  0  0  0  0  0  0
   -1.6753   -2.5665    0.0441 C   0  0  0  0  0  0  0  0  0  0  0  0
    0.5678   -3.0319    0.0650 N   0  0  0  0  0  0  0  0  0  0  0  0
    3.4272   -0.7267    0.7650 C   0  0  0  0  0  0  0  0  0  0  0  0
    0.4503   -0.9252    1.0341 O   0  0  0  0  0  0  0  0  0  0  0  0
    4.9391   -2.2766   -0.0847 C   0  0  0  0  0  0  0  0  0  0  0  0
    4.7986   -1.0442    0.5080 C   0  0  0  0  0  0  0  0  0  0  0  0
   -4.1295   -0.5427   -0.1116 C   0  0  0  0  0  0  0  0  0  0  0  0
   -3.1817   -5.5716    0.2196 C   0  0  0  0  0  0  0  0  0  0  0  0
   -5.9677   -5.1503    0.0731 C   0  0  0  0  0  0  0  0  0  0  0  0
   -4.0720   -6.6521    0.2544 C   0  0  0  0  0  0  0  0  0  0  0  0
   -5.4460   -6.4419    0.1790 C   0  0  0  0  0  0  0  0  0  0  0  0
   -6.2187   -2.3215   -0.0957 H   0  0  0  0  0  0  0  0  0  0  0  0
   -1.4717   -1.4911   -0.0590 H   0  0  0  0  0  0  0  0  0  0  0  0
    1.2241   -3.7617   -0.1900 H   0  0  0  0  0  0  0  0  0  0  0  0
    3.1008    0.1949    1.2362 H   0  0  0  0  0  0  0  0  0  0  0  0
    5.8497   -2.7772   -0.3819 H   0  0  0  0  0  0  0  0  0  0  0  0
    5.6416   -0.4095    0.7562 H   0  0  0  0  0  0  0  0  0  0  0  0
   -4.5724   -0.2133   -1.0553 H   0  0  0  0  0  0  0  0  0  0  0  0
   -4.7126   -0.1245    0.7145 H   0  0  0  0  0  0  0  0  0  0  0  0
   -3.1243   -0.1187   -0.0496 H   0  0  0  0  0  0  0  0  0  0  0  0
   -2.1117   -5.7499    0.2782 H   0  0  0  0  0  0  0  0  0  0  0  0
   -7.0397   -4.9883    0.0141 H   0  0  0  0  0  0  0  0  0  0  0  0
   -3.6832   -7.6635    0.3412 H   0  0  0  0  0  0  0  0  0  0  0  0
   -6.1227   -7.2926    0.2034 H   0  0  0  0  0  0  0  0  0  0  0  0
  2  1  2  0  0  0  0
  3  2  1  0  0  0  0
  3  6  1  0  0  0  0
  3 21  1  0  0  0  0
  4  1  1  0  0  0  0
  5 11  1  0  0  0  0
  6  4  2  0  0  0  0
  7  5  1  0  0  0  0
  8  7  1  0  0  0  0
  9 10  2  0  0  0  0
 10  1  1  0  0  0  0
 10 22  1  0  0  0  0
 11  9  1  0  0  0  0
 11 23  1  0  0  0  0
 12  7  2  0  0  0  0
 12 24  1  0  0  0  0
 13  5  2  0  0  0  0
 14  8  1  0  0  0  0
 14 25  1  0  0  0  0
 15 12  1  0  0  0  0
 15 14  2  0  0  0  0
 15 26  1  0  0  0  0
 16  2  1  0  0  0  0
 16 27  1  0  0  0  0
 16 28  1  0  0  0  0
 16 29  1  0  0  0  0
 17  4  1  0  0  0  0
 17 30  1  0  0  0  0
 18  6  1  0  0  0  0
 18 20  2  0  0  0  0
 18 31  1  0  0  0  0
 19 17  2  0  0  0  0
 19 32  1  0  0  0  0
 20 19  1  0  0  0  0
 20 33  1  0  0  0  0
M  END
>  <Mol_ID>
8056

>  <Formula>
C15H13N3OS

>  <MolWeight>
283.34822

>  <Cat>
P2763

>  <Name>
WAY-353173

>  <Synonyms>
N/A

>  <Target>
CD4 D1

>  <Form>
free base

>  <CAS>
113144-90-4

>  <URL>
N/A

$$$$
