WAY-299404
 OpenBabel08302521413D

 41 42  0  0  0  0  0  0  0  0999 V2000
    1.3968   -0.3254    0.0688 C   0  0  0  0  0  0  0  0  0  0  0  0
    2.8023   -0.5831    0.1671 N   0  0  0  0  0  0  0  0  0  0  0  0
    0.6387   -0.1551    1.2251 C   0  0  0  0  0  0  0  0  0  0  0  0
    0.7769   -0.1971   -1.1778 C   0  0  0  0  0  0  0  0  0  0  0  0
    3.7521    0.5437    0.2343 C   0  0  0  0  0  0  0  0  0  0  0  0
    3.3804   -2.1606    0.2038 S   0  0  0  0  0  0  0  0  0  0  0  0
   -0.7313    0.1442    1.1452 C   0  0  0  0  0  0  0  0  0  0  0  0
   -0.5911    0.0957   -1.2537 C   0  0  0  0  0  0  0  0  0  0  0  0
    4.2503    1.0637   -1.1030 C   0  0  0  0  0  0  0  0  0  0  0  0
    4.0206   -2.2909    1.8630 C   0  0  0  0  0  0  0  0  0  0  0  0
    2.2852   -3.0934    0.0729 O   0  0  0  0  0  0  0  0  0  0  0  0
    4.5111   -2.2133   -0.7004 O   0  0  0  0  0  0  0  0  0  0  0  0
   -1.3565    0.2705   -0.0943 C   0  0  0  0  0  0  0  0  0  0  0  0
    4.3081    0.1452   -2.1196 N   0  0  0  0  0  0  0  0  0  0  0  0
    4.6277    2.2272   -1.2323 O   0  0  0  0  0  0  0  0  0  0  0  0
   -2.6795    0.5551   -0.3014 O   0  0  0  0  0  0  0  0  0  0  0  0
    4.7419    0.4912   -3.4500 C   0  0  0  0  0  0  0  0  0  0  0  0
   -3.4933    0.7480    0.8521 C   0  0  0  0  0  0  0  0  0  0  0  0
    4.0252   -0.3795   -4.4141 C   0  0  0  0  0  0  0  0  0  0  0  0
    3.9806   -1.7427   -4.6248 C   0  0  0  0  0  0  0  0  0  0  0  0
    3.2062    0.2526   -5.3057 O   0  0  0  0  0  0  0  0  0  0  0  0
    3.0804   -1.9533   -5.6989 C   0  0  0  0  0  0  0  0  0  0  0  0
    2.6402   -0.7077   -6.0781 C   0  0  0  0  0  0  0  0  0  0  0  0
    1.0996   -0.2509    2.2025 H   0  0  0  0  0  0  0  0  0  0  0  0
    1.3428   -0.3212   -2.0978 H   0  0  0  0  0  0  0  0  0  0  0  0
    3.2911    1.3751    0.7793 H   0  0  0  0  0  0  0  0  0  0  0  0
    4.6396    0.2605    0.8106 H   0  0  0  0  0  0  0  0  0  0  0  0
   -1.2794    0.2720    2.0722 H   0  0  0  0  0  0  0  0  0  0  0  0
   -1.0701    0.1916   -2.2280 H   0  0  0  0  0  0  0  0  0  0  0  0
    3.2017   -2.1712    2.5758 H   0  0  0  0  0  0  0  0  0  0  0  0
    4.4686   -3.2824    1.9715 H   0  0  0  0  0  0  0  0  0  0  0  0
    4.7932   -1.5406    2.0263 H   0  0  0  0  0  0  0  0  0  0  0  0
    4.3264   -0.8406   -1.8656 H   0  0  0  0  0  0  0  0  0  0  0  0
    4.5373    1.5487   -3.6436 H   0  0  0  0  0  0  0  0  0  0  0  0
    5.8229    0.3306   -3.5083 H   0  0  0  0  0  0  0  0  0  0  0  0
   -3.4860   -0.1346    1.5003 H   0  0  0  0  0  0  0  0  0  0  0  0
   -3.1856    1.6436    1.4024 H   0  0  0  0  0  0  0  0  0  0  0  0
   -4.5255    0.9006    0.5196 H   0  0  0  0  0  0  0  0  0  0  0  0
    4.5197   -2.4955   -4.0643 H   0  0  0  0  0  0  0  0  0  0  0  0
    2.7856   -2.8946   -6.1407 H   0  0  0  0  0  0  0  0  0  0  0  0
    1.9578   -0.3516   -6.8372 H   0  0  0  0  0  0  0  0  0  0  0  0
  1  2  1  0  0  0  0
  1  3  2  0  0  0  0
  1  4  1  0  0  0  0
  2  5  1  0  0  0  0
  2  6  1  0  0  0  0
  3  7  1  0  0  0  0
  3 24  1  0  0  0  0
  4  8  2  0  0  0  0
  4 25  1  0  0  0  0
  5  9  1  0  0  0  0
  5 26  1  0  0  0  0
  5 27  1  0  0  0  0
  6 10  1  0  0  0  0
  6 11  2  0  0  0  0
  6 12  2  0  0  0  0
  7 13  2  0  0  0  0
  7 28  1  0  0  0  0
  8 13  1  0  0  0  0
  8 29  1  0  0  0  0
  9 14  1  0  0  0  0
  9 15  2  0  0  0  0
 10 30  1  0  0  0  0
 10 31  1  0  0  0  0
 10 32  1  0  0  0  0
 13 16  1  0  0  0  0
 14 17  1  0  0  0  0
 14 33  1  0  0  0  0
 16 18  1  0  0  0  0
 17 19  1  0  0  0  0
 17 34  1  0  0  0  0
 17 35  1  0  0  0  0
 18 36  1  0  0  0  0
 18 37  1  0  0  0  0
 18 38  1  0  0  0  0
 19 20  2  0  0  0  0
 19 21  1  0  0  0  0
 20 22  1  0  0  0  0
 20 39  1  0  0  0  0
 21 23  1  0  0  0  0
 22 23  2  0  0  0  0
 22 40  1  0  0  0  0
 23 41  1  0  0  0  0
M  END
>  <Mol_ID>
8361

>  <Formula>
C15H18N2O5S

>  <MolWeight>
338.37882

>  <Cat>
P2112

>  <Name>
WAY-299404

>  <Synonyms>
N/A

>  <Target>
SARS-CoV 3CLpro

>  <Form>
free base

>  <CAS>
1005126-26-0

>  <URL>
N/A

$$$$
