WAY-325438
 OpenBabel08302521433D

 37 39  0  0  0  0  0  0  0  0999 V2000
   -0.0948    1.1276   -0.1354 C   0  0  0  0  0  0  0  0  0  0  0  0
   -0.6636    2.4580    0.0236 C   0  0  0  0  0  0  0  0  0  0  0  0
   -0.9297    0.0381   -0.0827 O   0  0  0  0  0  0  0  0  0  0  0  0
    0.0197    3.4489   -0.6740 N   0  0  0  0  0  0  0  0  0  0  0  0
    1.2099    0.6854   -0.2726 C   0  0  0  0  0  0  0  0  0  0  0  0
   -0.1600   -1.0894   -0.1655 C   0  0  0  0  0  0  0  0  0  0  0  0
   -0.3187    4.8209   -0.6478 C   0  0  0  0  0  0  0  0  0  0  0  0
    1.1677   -0.7328   -0.2824 C   0  0  0  0  0  0  0  0  0  0  0  0
   -1.6813    2.6763    0.6761 O   0  0  0  0  0  0  0  0  0  0  0  0
   -0.2050    5.5542   -1.8325 C   0  0  0  0  0  0  0  0  0  0  0  0
   -1.1182   -3.0217   -1.2069 O   0  0  0  0  0  0  0  0  0  0  0  0
   -0.8488   -2.3940    0.0529 C   0  0  0  0  0  0  0  0  0  0  0  0
   -1.8264   -4.2010   -1.1304 C   0  0  0  0  0  0  0  0  0  0  0  0
   -3.3034   -6.5934   -1.1968 C   0  0  0  0  0  0  0  0  0  0  0  0
    0.1602    4.9303   -2.9638 F   0  0  0  0  0  0  0  0  0  0  0  0
   -2.1524   -4.8791    0.0535 C   0  0  0  0  0  0  0  0  0  0  0  0
   -2.2378   -4.7493   -2.3478 C   0  0  0  0  0  0  0  0  0  0  0  0
   -2.9747   -5.9370   -2.3826 C   0  0  0  0  0  0  0  0  0  0  0  0
   -2.8855   -6.0667    0.0206 C   0  0  0  0  0  0  0  0  0  0  0  0
   -0.7148    5.4830    0.5176 C   0  0  0  0  0  0  0  0  0  0  0  0
   -0.5109    6.9123   -1.8791 C   0  0  0  0  0  0  0  0  0  0  0  0
   -0.9800    6.8591    0.4873 C   0  0  0  0  0  0  0  0  0  0  0  0
   -0.8883    7.5712   -0.7104 C   0  0  0  0  0  0  0  0  0  0  0  0
    0.5456    3.1393   -1.4838 H   0  0  0  0  0  0  0  0  0  0  0  0
    2.0933    1.3093   -0.2811 H   0  0  0  0  0  0  0  0  0  0  0  0
    2.0070   -1.4146   -0.3011 H   0  0  0  0  0  0  0  0  0  0  0  0
   -0.1874   -3.0339    0.6496 H   0  0  0  0  0  0  0  0  0  0  0  0
   -1.7841   -2.2192    0.5964 H   0  0  0  0  0  0  0  0  0  0  0  0
   -3.8833   -7.5125   -1.2252 H   0  0  0  0  0  0  0  0  0  0  0  0
   -1.8463   -4.5138    1.0315 H   0  0  0  0  0  0  0  0  0  0  0  0
   -1.9859   -4.2457   -3.2788 H   0  0  0  0  0  0  0  0  0  0  0  0
   -3.2974   -6.3471   -3.3355 H   0  0  0  0  0  0  0  0  0  0  0  0
   -3.1382   -6.5772    0.9486 H   0  0  0  0  0  0  0  0  0  0  0  0
   -0.7868    4.9541    1.4645 H   0  0  0  0  0  0  0  0  0  0  0  0
   -0.4563    7.4442   -2.8233 H   0  0  0  0  0  0  0  0  0  0  0  0
   -1.2578    7.3770    1.4035 H   0  0  0  0  0  0  0  0  0  0  0  0
   -1.1109    8.6359   -0.7316 H   0  0  0  0  0  0  0  0  0  0  0  0
  2  1  1  0  0  0  0
  3  1  1  0  0  0  0
  4  2  1  0  0  0  0
  4 24  1  0  0  0  0
  5  1  2  0  0  0  0
  5 25  1  0  0  0  0
  6  3  1  0  0  0  0
  6  8  2  0  0  0  0
  7  4  1  0  0  0  0
  8  5  1  0  0  0  0
  8 26  1  0  0  0  0
  9  2  2  0  0  0  0
 10  7  2  0  0  0  0
 11 12  1  0  0  0  0
 12  6  1  0  0  0  0
 12 27  1  0  0  0  0
 12 28  1  0  0  0  0
 13 11  1  0  0  0  0
 14 18  2  0  0  0  0
 14 29  1  0  0  0  0
 15 10  1  0  0  0  0
 16 13  1  0  0  0  0
 16 30  1  0  0  0  0
 17 13  2  0  0  0  0
 17 31  1  0  0  0  0
 18 17  1  0  0  0  0
 18 32  1  0  0  0  0
 19 16  2  0  0  0  0
 19 14  1  0  0  0  0
 19 33  1  0  0  0  0
 20  7  1  0  0  0  0
 20 34  1  0  0  0  0
 21 10  1  0  0  0  0
 21 23  2  0  0  0  0
 21 35  1  0  0  0  0
 22 20  2  0  0  0  0
 22 36  1  0  0  0  0
 23 22  1  0  0  0  0
 23 37  1  0  0  0  0
M  END
>  <Mol_ID>
8694

>  <Formula>
C18H13ClFNO3

>  <MolWeight>
345.7521232

>  <Cat>
P2393

>  <Name>
WAY-325438

>  <Synonyms>
N/A

>  <Target>
Others

>  <Form>
free base

>  <CAS>
445239-51-0

>  <URL>
N/A

$$$$
