WAY-621810
 OpenBabel08302521443D

 26 27  0  0  0  0  0  0  0  0999 V2000
    1.2771    0.0477    0.0644 N   0  3  0  0  0  0  0  0  0  0  0  0
    0.6572    0.9239    1.0734 C   0  0  0  0  0  0  0  0  0  0  0  0
    1.4502    6.1585   -1.6096 C   0  0  0  0  0  0  0  0  0  0  0  0
    0.2973    7.2233   -2.3109 S   0  0  0  0  0  0  0  0  0  0  0  0
    1.5052    8.3125   -2.8309 C   0  0  0  0  0  0  0  0  0  0  0  0
    0.9806    4.9370   -0.9533 C   0  0  0  0  0  0  0  0  0  0  0  0
    2.7356    6.6423   -1.7855 C   0  0  0  0  0  0  0  0  0  0  0  0
    2.7666    7.8818   -2.4918 C   0  0  0  0  0  0  0  0  0  0  0  0
   -0.1360    0.3813    2.0520 N   0  0  0  0  0  0  0  0  0  0  0  0
    0.9427    2.2956    0.9667 C   0  0  0  0  0  0  0  0  0  0  0  0
    2.5171   -0.0286    0.0531 O   0  5  0  0  0  0  0  0  0  0  0  0
    0.5141   -0.5796   -0.6857 O   0  0  0  0  0  0  0  0  0  0  0  0
    1.7165    2.7164   -0.0760 O   0  0  0  0  0  0  0  0  0  0  0  0
    2.0450    4.0888   -0.2373 C   0  0  0  0  0  0  0  0  0  0  0  0
   -0.2040    4.5955   -0.9231 O   0  0  0  0  0  0  0  0  0  0  0  0
   -0.6583    1.2320    2.9538 C   0  0  0  0  0  0  0  0  0  0  0  0
    0.3854    3.1312    1.9354 C   0  0  0  0  0  0  0  0  0  0  0  0
   -0.4220    2.5946    2.9409 C   0  0  0  0  0  0  0  0  0  0  0  0
    1.2330    9.2129   -3.3654 H   0  0  0  0  0  0  0  0  0  0  0  0
    3.6336    6.1438   -1.4415 H   0  0  0  0  0  0  0  0  0  0  0  0
    3.6688    8.4281   -2.7401 H   0  0  0  0  0  0  0  0  0  0  0  0
    2.3174    4.5627    0.7135 H   0  0  0  0  0  0  0  0  0  0  0  0
    2.9493    4.0834   -0.8528 H   0  0  0  0  0  0  0  0  0  0  0  0
   -1.2946    0.7780    3.7092 H   0  0  0  0  0  0  0  0  0  0  0  0
    0.5353    4.2049    1.9324 H   0  0  0  0  0  0  0  0  0  0  0  0
   -0.8696    3.2353    3.6945 H   0  0  0  0  0  0  0  0  0  0  0  0
  2  1  1  0  0  0  0
  3  6  1  0  0  0  0
  4  3  1  0  0  0  0
  5  4  1  0  0  0  0
  5 19  1  0  0  0  0
  6 14  1  0  0  0  0
  7  3  2  0  0  0  0
  7 20  1  0  0  0  0
  8  7  1  0  0  0  0
  8  5  2  0  0  0  0
  8 21  1  0  0  0  0
  9  2  2  0  0  0  0
 10  2  1  0  0  0  0
 11  1  1  0  0  0  0
 12  1  2  0  0  0  0
 13 10  1  0  0  0  0
 14 13  1  0  0  0  0
 14 22  1  0  0  0  0
 14 23  1  0  0  0  0
 15  6  2  0  0  0  0
 16  9  1  0  0  0  0
 16 18  2  0  0  0  0
 16 24  1  0  0  0  0
 17 10  2  0  0  0  0
 17 25  1  0  0  0  0
 18 17  1  0  0  0  0
 18 26  1  0  0  0  0
M  CHG  2   1   1  11  -1
M  END
>  <Mol_ID>
9057

>  <Formula>
C11H7ClN2O4S

>  <MolWeight>
298.70228

>  <Cat>
P2978

>  <Name>
WAY-621810

>  <Synonyms>
N/A

>  <Target>
Mcl-1

>  <Form>
free base

>  <CAS>
741734-32-7

>  <URL>
N/A

$$$$
