WAY-325401
 OpenBabel08302521433D

 47 49  0  0  0  0  0  0  0  0999 V2000
   -0.2604    0.9420   -0.8692 C   0  0  0  0  0  0  0  0  0  0  0  0
   -0.9032    2.2530   -0.7688 C   0  0  0  0  0  0  0  0  0  0  0  0
   -1.0357   -0.1826   -0.6160 O   0  0  0  0  0  0  0  0  0  0  0  0
    1.0361    0.5277   -1.1147 C   0  0  0  0  0  0  0  0  0  0  0  0
   -0.2276    3.3485   -1.3361 N   0  0  0  0  0  0  0  0  0  0  0  0
   -0.2352   -1.2934   -0.6790 C   0  0  0  0  0  0  0  0  0  0  0  0
    1.0506   -0.8902   -0.9950 C   0  0  0  0  0  0  0  0  0  0  0  0
   -2.3616    6.4359   -0.8319 C   0  0  0  0  0  0  0  0  0  0  0  0
   -0.7163    4.6930   -1.4024 C   0  0  0  0  0  0  0  0  0  0  0  0
   -2.0002    2.3584   -0.2240 O   0  0  0  0  0  0  0  0  0  0  0  0
   -1.7903    5.1589   -0.6370 C   0  0  0  0  0  0  0  0  0  0  0  0
   -1.8114   -3.1252   -1.0836 O   0  0  0  0  0  0  0  0  0  0  0  0
   -1.8192    7.2958   -1.8001 C   0  0  0  0  0  0  0  0  0  0  0  0
   -2.3229   -4.3900   -0.8366 C   0  0  0  0  0  0  0  0  0  0  0  0
   -3.4456   -4.8426   -1.5670 C   0  0  0  0  0  0  0  0  0  0  0  0
   -0.6729    6.8763   -2.4952 C   0  0  0  0  0  0  0  0  0  0  0  0
   -0.7823   -2.6274   -0.2138 C   0  0  0  0  0  0  0  0  0  0  0  0
   -0.1254    5.5938   -2.2960 C   0  0  0  0  0  0  0  0  0  0  0  0
   -4.1571   -4.2003   -2.5448 O   0  0  0  0  0  0  0  0  0  0  0  0
   -3.5833    6.8024   -0.0317 C   0  0  0  0  0  0  0  0  0  0  0  0
   -2.4244    8.6355   -2.1328 C   0  0  0  0  0  0  0  0  0  0  0  0
   -1.7562   -5.2901    0.0847 C   0  0  0  0  0  0  0  0  0  0  0  0
   -3.9734   -6.1325   -1.3445 C   0  0  0  0  0  0  0  0  0  0  0  0
   -3.8426   -2.8529   -2.8358 C   0  0  0  0  0  0  0  0  0  0  0  0
   -2.2760   -6.5833    0.2727 C   0  0  0  0  0  0  0  0  0  0  0  0
   -3.3934   -7.0050   -0.4335 C   0  0  0  0  0  0  0  0  0  0  0  0
    1.8927    1.1672   -1.2784 H   0  0  0  0  0  0  0  0  0  0  0  0
    0.5812    3.1424   -1.9052 H   0  0  0  0  0  0  0  0  0  0  0  0
    1.9177   -1.5348   -1.0476 H   0  0  0  0  0  0  0  0  0  0  0  0
   -2.2261    4.5310    0.1344 H   0  0  0  0  0  0  0  0  0  0  0  0
   -0.2147    7.5404   -3.2269 H   0  0  0  0  0  0  0  0  0  0  0  0
    0.0605   -3.3281   -0.2078 H   0  0  0  0  0  0  0  0  0  0  0  0
   -1.1770   -2.5114    0.8016 H   0  0  0  0  0  0  0  0  0  0  0  0
    0.7410    5.3136   -2.8880 H   0  0  0  0  0  0  0  0  0  0  0  0
   -3.4357    7.7533    0.4900 H   0  0  0  0  0  0  0  0  0  0  0  0
   -4.4535    6.8756   -0.6924 H   0  0  0  0  0  0  0  0  0  0  0  0
   -3.8093    6.0475    0.7286 H   0  0  0  0  0  0  0  0  0  0  0  0
   -1.7423    9.4463   -1.8595 H   0  0  0  0  0  0  0  0  0  0  0  0
   -2.6370    8.6925   -3.2063 H   0  0  0  0  0  0  0  0  0  0  0  0
   -3.3735    8.8141   -1.6188 H   0  0  0  0  0  0  0  0  0  0  0  0
   -0.8871   -5.0333    0.6791 H   0  0  0  0  0  0  0  0  0  0  0  0
   -4.8520   -6.4575   -1.8988 H   0  0  0  0  0  0  0  0  0  0  0  0
   -4.0545   -2.2135   -1.9745 H   0  0  0  0  0  0  0  0  0  0  0  0
   -2.8144   -2.7516   -3.1920 H   0  0  0  0  0  0  0  0  0  0  0  0
   -4.4947   -2.5375   -3.6558 H   0  0  0  0  0  0  0  0  0  0  0  0
   -1.8007   -7.2690    0.9723 H   0  0  0  0  0  0  0  0  0  0  0  0
   -3.8041   -8.0011   -0.2867 H   0  0  0  0  0  0  0  0  0  0  0  0
  2  1  1  0  0  0  0
  3  1  1  0  0  0  0
  4  1  2  0  0  0  0
  4 27  1  0  0  0  0
  5  2  1  0  0  0  0
  5 28  1  0  0  0  0
  6  3  1  0  0  0  0
  6  7  2  0  0  0  0
  7  4  1  0  0  0  0
  7 29  1  0  0  0  0
  8 11  2  0  0  0  0
  8 13  1  0  0  0  0
  9  5  1  0  0  0  0
 10  2  2  0  0  0  0
 11  9  1  0  0  0  0
 11 30  1  0  0  0  0
 12 17  1  0  0  0  0
 13 16  2  0  0  0  0
 14 12  1  0  0  0  0
 15 14  2  0  0  0  0
 16 18  1  0  0  0  0
 16 31  1  0  0  0  0
 17  6  1  0  0  0  0
 17 32  1  0  0  0  0
 17 33  1  0  0  0  0
 18  9  2  0  0  0  0
 18 34  1  0  0  0  0
 19 15  1  0  0  0  0
 20  8  1  0  0  0  0
 20 35  1  0  0  0  0
 20 36  1  0  0  0  0
 20 37  1  0  0  0  0
 21 13  1  0  0  0  0
 21 38  1  0  0  0  0
 21 39  1  0  0  0  0
 21 40  1  0  0  0  0
 22 14  1  0  0  0  0
 22 41  1  0  0  0  0
 23 15  1  0  0  0  0
 23 42  1  0  0  0  0
 24 19  1  0  0  0  0
 24 43  1  0  0  0  0
 24 44  1  0  0  0  0
 24 45  1  0  0  0  0
 25 22  2  0  0  0  0
 25 46  1  0  0  0  0
 26 25  1  0  0  0  0
 26 23  2  0  0  0  0
 26 47  1  0  0  0  0
M  END
>  <Mol_ID>
8686

>  <Formula>
C21H21NO4

>  <MolWeight>
351.39574

>  <Cat>
P2385

>  <Name>
WAY-325401

>  <Synonyms>
N/A

>  <Target>
Others

>  <Form>
free base

>  <CAS>
445231-47-0

>  <URL>
N/A

$$$$
