WAY-327368
 OpenBabel08302521443D

 52 54  0  0  0  0  0  0  0  0999 V2000
    1.2016   -0.1247   -0.0304 S   0  0  0  0  0  0  0  0  0  0  0  0
   -2.2228   -5.1880   -1.5710 C   0  0  0  0  0  0  0  0  0  0  0  0
   -2.3559   -3.8075   -1.6736 C   0  0  0  0  0  0  0  0  0  0  0  0
   -1.0326   -5.4949   -0.9570 O   0  0  0  0  0  0  0  0  0  0  0  0
   -1.1798   -3.2465   -1.0856 C   0  0  0  0  0  0  0  0  0  0  0  0
    0.5650   -1.7796   -0.2508 C   0  0  0  0  0  0  0  0  0  0  0  0
   -0.3949   -4.3214   -0.6931 C   0  0  0  0  0  0  0  0  0  0  0  0
   -3.0909   -6.2698   -2.0072 C   0  0  0  0  0  0  0  0  0  0  0  0
   -0.6976   -1.9420   -0.8560 C   0  0  0  0  0  0  0  0  0  0  0  0
    1.3370    0.0620    1.6848 N   0  0  0  0  0  0  0  0  0  0  0  0
    0.1693    0.7767   -0.5001 O   0  0  0  0  0  0  0  0  0  0  0  0
    2.5339   -0.1012   -0.5971 O   0  0  0  0  0  0  0  0  0  0  0  0
   -2.9019   -7.4613   -1.3418 N   0  0  0  0  0  0  0  0  0  0  0  0
    1.3495   -2.8900    0.0757 C   0  0  0  0  0  0  0  0  0  0  0  0
    0.8703   -4.1935   -0.1203 C   0  0  0  0  0  0  0  0  0  0  0  0
   -3.9416   -6.1423   -2.8845 O   0  0  0  0  0  0  0  0  0  0  0  0
   -3.6806   -8.6421   -1.6318 C   0  0  0  0  0  0  0  0  0  0  0  0
   -3.4934   -3.0449   -2.2500 C   0  0  0  0  0  0  0  0  0  0  0  0
   -4.5616   -9.0367   -0.4737 C   0  0  0  0  0  0  0  0  0  0  0  0
    2.6631   -0.3339    2.2545 C   0  0  0  0  0  0  0  0  0  0  0  0
    0.7652    1.3341    2.2195 C   0  0  0  0  0  0  0  0  0  0  0  0
   -5.8766   -8.5569   -0.3826 C   0  0  0  0  0  0  0  0  0  0  0  0
   -4.0819   -9.8912    0.5294 C   0  0  0  0  0  0  0  0  0  0  0  0
    2.6986   -0.3611    3.7760 C   0  0  0  0  0  0  0  0  0  0  0  0
    1.5311    2.5694    1.7715 C   0  0  0  0  0  0  0  0  0  0  0  0
   -6.7022   -8.9408    0.6774 C   0  0  0  0  0  0  0  0  0  0  0  0
   -4.9095  -10.2704    1.5920 C   0  0  0  0  0  0  0  0  0  0  0  0
   -6.2189   -9.7994    1.6625 C   0  0  0  0  0  0  0  0  0  0  0  0
   -1.2874   -1.0831   -1.1663 H   0  0  0  0  0  0  0  0  0  0  0  0
   -2.2259   -7.4822   -0.5895 H   0  0  0  0  0  0  0  0  0  0  0  0
    2.3530   -2.7608    0.4685 H   0  0  0  0  0  0  0  0  0  0  0  0
    1.4616   -5.0637    0.1383 H   0  0  0  0  0  0  0  0  0  0  0  0
   -4.2884   -8.5019   -2.5330 H   0  0  0  0  0  0  0  0  0  0  0  0
   -2.9738   -9.4493   -1.8543 H   0  0  0  0  0  0  0  0  0  0  0  0
   -3.9434   -2.4073   -1.4822 H   0  0  0  0  0  0  0  0  0  0  0  0
   -3.1489   -2.4065   -3.0698 H   0  0  0  0  0  0  0  0  0  0  0  0
   -4.2798   -3.6946   -2.6406 H   0  0  0  0  0  0  0  0  0  0  0  0
    2.9160   -1.3409    1.9182 H   0  0  0  0  0  0  0  0  0  0  0  0
    3.4422    0.3428    1.8889 H   0  0  0  0  0  0  0  0  0  0  0  0
   -0.2878    1.4092    1.9250 H   0  0  0  0  0  0  0  0  0  0  0  0
    0.7385    1.2972    3.3129 H   0  0  0  0  0  0  0  0  0  0  0  0
   -6.2684   -7.8872   -1.1465 H   0  0  0  0  0  0  0  0  0  0  0  0
   -3.0688  -10.2790    0.4858 H   0  0  0  0  0  0  0  0  0  0  0  0
    2.5570    0.6327    4.2108 H   0  0  0  0  0  0  0  0  0  0  0  0
    1.9353   -1.0309    4.1826 H   0  0  0  0  0  0  0  0  0  0  0  0
    3.6786   -0.7146    4.1168 H   0  0  0  0  0  0  0  0  0  0  0  0
    2.5956    2.5011    2.0129 H   0  0  0  0  0  0  0  0  0  0  0  0
    1.4442    2.7304    0.6932 H   0  0  0  0  0  0  0  0  0  0  0  0
    1.1311    3.4587    2.2687 H   0  0  0  0  0  0  0  0  0  0  0  0
   -7.7241   -8.5716    0.7315 H   0  0  0  0  0  0  0  0  0  0  0  0
   -4.5319  -10.9423    2.3590 H   0  0  0  0  0  0  0  0  0  0  0  0
   -6.8622  -10.0990    2.4870 H   0  0  0  0  0  0  0  0  0  0  0  0
  2  3  2  0  0  0  0
  3  5  1  0  0  0  0
  4  7  1  0  0  0  0
  4  2  1  0  0  0  0
  5  9  2  0  0  0  0
  5  7  1  0  0  0  0
  6  1  1  0  0  0  0
  7 15  2  0  0  0  0
  8  2  1  0  0  0  0
  9  6  1  0  0  0  0
  9 29  1  0  0  0  0
 10  1  1  0  0  0  0
 11  1  2  0  0  0  0
 12  1  2  0  0  0  0
 13  8  1  0  0  0  0
 13 30  1  0  0  0  0
 14  6  2  0  0  0  0
 14 31  1  0  0  0  0
 15 14  1  0  0  0  0
 15 32  1  0  0  0  0
 16  8  2  0  0  0  0
 17 13  1  0  0  0  0
 17 33  1  0  0  0  0
 17 34  1  0  0  0  0
 18  3  1  0  0  0  0
 18 35  1  0  0  0  0
 18 36  1  0  0  0  0
 18 37  1  0  0  0  0
 19 17  1  0  0  0  0
 20 10  1  0  0  0  0
 20 38  1  0  0  0  0
 20 39  1  0  0  0  0
 21 10  1  0  0  0  0
 21 40  1  0  0  0  0
 21 41  1  0  0  0  0
 22 19  2  0  0  0  0
 22 42  1  0  0  0  0
 23 19  1  0  0  0  0
 23 43  1  0  0  0  0
 24 20  1  0  0  0  0
 24 44  1  0  0  0  0
 24 45  1  0  0  0  0
 24 46  1  0  0  0  0
 25 21  1  0  0  0  0
 25 47  1  0  0  0  0
 25 48  1  0  0  0  0
 25 49  1  0  0  0  0
 26 22  1  0  0  0  0
 26 28  2  0  0  0  0
 26 50  1  0  0  0  0
 27 23  2  0  0  0  0
 27 51  1  0  0  0  0
 28 27  1  0  0  0  0
 28 52  1  0  0  0  0
M  END
>  <Mol_ID>
8968

>  <Formula>
C21H24N2O4S

>  <MolWeight>
400.49126

>  <Cat>
P2528

>  <Name>
WAY-327368

>  <Synonyms>
N/A

>  <Target>
calcium channel

>  <Form>
free base

>  <CAS>
687568-85-0

>  <URL>
N/A

$$$$
