WAY-352257
 OpenBabel08302521393D

 43 44  0  0  0  0  0  0  0  0999 V2000
    1.7465   -3.8166    7.3192 N   0  0  0  0  0  0  0  0  0  0  0  0
    1.7090   -3.6292    5.9520 C   0  0  0  0  0  0  0  0  0  0  0  0
    2.6890   -2.8273    5.5982 N   0  0  0  0  0  0  0  0  0  0  0  0
    3.4302   -2.5463    6.7302 N   0  0  0  0  0  0  0  0  0  0  0  0
    2.8851   -3.1787    7.7524 C   0  0  0  0  0  0  0  0  0  0  0  0
    0.5481   -4.3943    4.9072 S   0  0  0  0  0  0  0  0  0  0  0  0
    0.6904   -4.3441    0.8756 N   0  0  0  0  0  0  0  0  0  0  0  0
   -0.0046   -4.7485   -0.3720 C   0  0  3  0  0  0  0  0  0  0  0  0
    0.0987   -4.3125    2.1348 C   0  0  0  0  0  0  0  0  0  0  0  0
    0.0386   -6.2844   -0.6229 C   0  0  3  0  0  0  0  0  0  0  0  0
    0.8163   -4.5138    8.1644 N   0  0  0  0  0  0  0  0  0  0  0  0
   -1.0630   -4.6457    2.3108 O   0  0  0  0  0  0  0  0  0  0  0  0
    1.0068   -3.7495    3.2554 C   0  0  0  0  0  0  0  0  0  0  0  0
    1.5043   -6.7358   -0.8587 C   0  0  3  0  0  0  0  0  0  0  0  0
    3.4141   -3.2737    9.1359 C   0  0  0  0  0  0  0  0  0  0  0  0
    0.6033   -4.0058   -1.5781 C   0  0  0  0  0  0  0  0  0  0  0  0
    2.0270   -4.4701   -1.9007 C   0  0  0  0  0  0  0  0  0  0  0  0
   -0.8896   -6.6880   -1.7914 C   0  0  0  0  0  0  0  0  0  0  0  0
    2.1525   -5.9874   -2.0349 C   0  0  0  0  0  0  0  0  0  0  0  0
    1.6425   -8.2485   -1.0423 C   0  0  0  0  0  0  0  0  0  0  0  0
    1.6800   -4.1465    0.8154 H   0  0  0  0  0  0  0  0  0  0  0  0
   -1.0528   -4.4400   -0.2642 H   0  0  0  0  0  0  0  0  0  0  0  0
   -0.3410   -6.7899    0.2734 H   0  0  0  0  0  0  0  0  0  0  0  0
    0.5087   -3.9125    8.9300 H   0  0  0  0  0  0  0  0  0  0  0  0
   -0.0316   -4.7377    7.6422 H   0  0  0  0  0  0  0  0  0  0  0  0
    0.8967   -2.6596    3.2573 H   0  0  0  0  0  0  0  0  0  0  0  0
    2.0514   -3.9992    3.0436 H   0  0  0  0  0  0  0  0  0  0  0  0
    2.0729   -6.4848    0.0466 H   0  0  0  0  0  0  0  0  0  0  0  0
    4.0619   -4.1569    9.2245 H   0  0  0  0  0  0  0  0  0  0  0  0
    4.0109   -2.3935    9.3903 H   0  0  0  0  0  0  0  0  0  0  0  0
    2.6189   -3.3617    9.8822 H   0  0  0  0  0  0  0  0  0  0  0  0
   -0.0253   -4.1609   -2.4652 H   0  0  0  0  0  0  0  0  0  0  0  0
    0.6050   -2.9251   -1.3984 H   0  0  0  0  0  0  0  0  0  0  0  0
    2.7073   -4.1258   -1.1143 H   0  0  0  0  0  0  0  0  0  0  0  0
    2.3659   -3.9942   -2.8284 H   0  0  0  0  0  0  0  0  0  0  0  0
   -0.5409   -6.3127   -2.7587 H   0  0  0  0  0  0  0  0  0  0  0  0
   -0.9631   -7.7773   -1.8814 H   0  0  0  0  0  0  0  0  0  0  0  0
   -1.9043   -6.3039   -1.6405 H   0  0  0  0  0  0  0  0  0  0  0  0
    3.2155   -6.2514   -2.0979 H   0  0  0  0  0  0  0  0  0  0  0  0
    1.7059   -6.3059   -2.9847 H   0  0  0  0  0  0  0  0  0  0  0  0
    1.2366   -8.5876   -2.0005 H   0  0  0  0  0  0  0  0  0  0  0  0
    2.6991   -8.5375   -1.0128 H   0  0  0  0  0  0  0  0  0  0  0  0
    1.1291   -8.7878   -0.2394 H   0  0  0  0  0  0  0  0  0  0  0  0
  2  1  1  0  0  0  0
  3  2  2  0  0  0  0
  3  4  1  0  0  0  0
  4  5  2  0  0  0  0
  5  1  1  0  0  0  0
  6  2  1  0  0  0  0
  7  9  1  0  0  0  0
  7 21  1  0  0  0  0
  8  7  1  0  0  0  0
  8 22  1  0  0  0  0
  9 13  1  0  0  0  0
 10  8  1  0  0  0  0
 10 23  1  0  0  0  0
 11  1  1  0  0  0  0
 11 24  1  0  0  0  0
 11 25  1  0  0  0  0
 12  9  2  0  0  0  0
 13  6  1  0  0  0  0
 13 26  1  0  0  0  0
 13 27  1  0  0  0  0
 14 10  1  0  0  0  0
 14 19  1  0  0  0  0
 14 28  1  0  0  0  0
 15  5  1  0  0  0  0
 15 29  1  0  0  0  0
 15 30  1  0  0  0  0
 15 31  1  0  0  0  0
 16  8  1  0  0  0  0
 16 32  1  0  0  0  0
 16 33  1  0  0  0  0
 17 16  1  0  0  0  0
 17 34  1  0  0  0  0
 17 35  1  0  0  0  0
 18 10  1  0  0  0  0
 18 36  1  0  0  0  0
 18 37  1  0  0  0  0
 18 38  1  0  0  0  0
 19 17  1  0  0  0  0
 19 39  1  0  0  0  0
 19 40  1  0  0  0  0
 20 14  1  0  0  0  0
 20 41  1  0  0  0  0
 20 42  1  0  0  0  0
 20 43  1  0  0  0  0
M  END
>  <Mol_ID>
8052

>  <Formula>
C13H23N5OS

>  <MolWeight>
297.41962

>  <Cat>
P2760

>  <Name>
WAY-352257

>  <Synonyms>
N/A

>  <Target>
amyloid beta

>  <Form>
free base

>  <CAS>
492457-14-4

>  <URL>
N/A

$$$$
