WAY-657644
 OpenBabel08302521423D

 40 43  0  0  0  0  0  0  0  0999 V2000
   -1.5734    1.3860   -0.7914 C   0  0  0  0  0  0  0  0  0  0  0  0
   -1.8546    0.5527   -1.9421 C   0  0  0  0  0  0  0  0  0  0  0  0
   -1.1726    0.5125    0.2063 C   0  0  0  0  0  0  0  0  0  0  0  0
   -1.1347   -0.7593   -0.2338 O   0  0  0  0  0  0  0  0  0  0  0  0
   -2.3004    0.7101   -3.2992 C   0  0  0  0  0  0  0  0  0  0  0  0
   -1.4999   -0.7360   -1.5382 C   0  0  0  0  0  0  0  0  0  0  0  0
   -1.5666    2.8755   -0.6247 C   0  0  0  0  0  0  0  0  0  0  0  0
   -0.1402    3.3745   -0.3889 C   0  0  0  0  0  0  0  0  0  0  0  0
    0.3306    4.2711   -1.3259 N   0  0  0  0  0  0  0  0  0  0  0  0
    2.9625    6.3140   -4.5250 N   0  0  0  0  0  0  0  0  0  0  0  0
   -2.2171   -0.4159   -4.1712 C   0  0  0  0  0  0  0  0  0  0  0  0
    0.5553    2.9796    0.5458 O   0  0  0  0  0  0  0  0  0  0  0  0
   -1.4939   -1.8628   -2.3522 C   0  0  0  0  0  0  0  0  0  0  0  0
   -1.8322   -1.6724   -3.6893 C   0  0  0  0  0  0  0  0  0  0  0  0
    2.1159    5.5729   -2.3733 C   0  0  0  0  0  0  0  0  0  0  0  0
    1.7601    4.4436   -1.4625 C   0  0  0  0  0  0  0  0  0  0  0  0
    2.5905    5.3414   -3.6617 C   0  0  0  0  0  0  0  0  0  0  0  0
   -2.8044    1.9208   -3.8248 C   0  0  0  0  0  0  0  0  0  0  0  0
    2.8684    7.5860   -4.0832 C   0  0  0  0  0  0  0  0  0  0  0  0
    2.0168    6.9090   -1.9629 C   0  0  0  0  0  0  0  0  0  0  0  0
   -2.5195   -0.2658   -5.5330 C   0  0  0  0  0  0  0  0  0  0  0  0
    2.4007    7.9311   -2.8276 C   0  0  0  0  0  0  0  0  0  0  0  0
   -3.1183    2.0410   -5.1833 C   0  0  0  0  0  0  0  0  0  0  0  0
   -2.9441    0.9600   -6.0403 C   0  0  0  0  0  0  0  0  0  0  0  0
   -0.8228    0.6620    1.2219 H   0  0  0  0  0  0  0  0  0  0  0  0
   -1.9966    3.3868   -1.4850 H   0  0  0  0  0  0  0  0  0  0  0  0
   -2.1698    3.1619    0.2451 H   0  0  0  0  0  0  0  0  0  0  0  0
   -0.2487    4.5121   -2.1178 H   0  0  0  0  0  0  0  0  0  0  0  0
   -1.1994   -2.8311   -1.9672 H   0  0  0  0  0  0  0  0  0  0  0  0
   -1.7896   -2.5309   -4.3576 H   0  0  0  0  0  0  0  0  0  0  0  0
    2.2197    4.5890   -0.4775 H   0  0  0  0  0  0  0  0  0  0  0  0
    2.1539    3.4974   -1.8561 H   0  0  0  0  0  0  0  0  0  0  0  0
    2.6971    4.3315   -4.0509 H   0  0  0  0  0  0  0  0  0  0  0  0
   -2.9895    2.7759   -3.1876 H   0  0  0  0  0  0  0  0  0  0  0  0
    3.1896    8.3462   -4.7897 H   0  0  0  0  0  0  0  0  0  0  0  0
    1.6559    7.1526   -0.9662 H   0  0  0  0  0  0  0  0  0  0  0  0
   -2.4129   -1.1055   -6.2179 H   0  0  0  0  0  0  0  0  0  0  0  0
    2.3487    8.9697   -2.5223 H   0  0  0  0  0  0  0  0  0  0  0  0
   -3.4949    2.9827   -5.5751 H   0  0  0  0  0  0  0  0  0  0  0  0
   -3.1522    1.0630   -7.1025 H   0  0  0  0  0  0  0  0  0  0  0  0
  2  1  1  0  0  0  0
  3  1  2  0  0  0  0
  3 25  1  0  0  0  0
  4  3  1  0  0  0  0
  5  2  1  0  0  0  0
  6  2  2  0  0  0  0
  6  4  1  0  0  0  0
  7  1  1  0  0  0  0
  7 26  1  0  0  0  0
  7 27  1  0  0  0  0
  8  7  1  0  0  0  0
  9  8  1  0  0  0  0
  9 28  1  0  0  0  0
 10 17  2  0  0  0  0
 11  5  2  0  0  0  0
 11 14  1  0  0  0  0
 12  8  2  0  0  0  0
 13  6  1  0  0  0  0
 13 29  1  0  0  0  0
 14 13  2  0  0  0  0
 14 30  1  0  0  0  0
 15 16  1  0  0  0  0
 16  9  1  0  0  0  0
 16 31  1  0  0  0  0
 16 32  1  0  0  0  0
 17 15  1  0  0  0  0
 17 33  1  0  0  0  0
 18  5  1  0  0  0  0
 18 34  1  0  0  0  0
 19 22  2  0  0  0  0
 19 10  1  0  0  0  0
 19 35  1  0  0  0  0
 20 15  2  0  0  0  0
 20 36  1  0  0  0  0
 21 11  1  0  0  0  0
 21 37  1  0  0  0  0
 22 20  1  0  0  0  0
 22 38  1  0  0  0  0
 23 18  2  0  0  0  0
 23 39  1  0  0  0  0
 24 23  1  0  0  0  0
 24 21  2  0  0  0  0
 24 40  1  0  0  0  0
M  END
>  <Mol_ID>
8550

>  <Formula>
C20H16N2O2

>  <MolWeight>
316.35324

>  <Cat>
P3161

>  <Name>
WAY-657644

>  <Synonyms>
N/A

>  <Target>
CYP51

>  <Form>
free base

>  <CAS>
853570-80-6

>  <URL>
N/A

$$$$
