WAY-324977
 OpenBabel08302521423D

 30 32  0  0  0  0  0  0  0  0999 V2000
    2.3771   -0.6639   -0.0776 C   0  0  0  0  0  0  0  0  0  0  0  0
    3.6294   -1.3528   -0.0585 N   0  0  0  0  0  0  0  0  0  0  0  0
    1.2271   -1.3972   -0.0437 N   0  0  0  0  0  0  0  0  0  0  0  0
    2.3407    0.7305   -0.1101 C   0  0  0  0  0  0  0  0  0  0  0  0
    4.8058   -0.6505   -0.0258 N   0  0  0  0  0  0  0  0  0  0  0  0
    3.8669   -2.7216   -0.0490 C   0  0  0  0  0  0  0  0  0  0  0  0
    0.0665   -0.7168   -0.0395 C   0  0  0  0  0  0  0  0  0  0  0  0
    1.1787    1.4175   -0.0854 N   0  0  0  0  0  0  0  0  0  0  0  0
    3.4377    1.5403   -0.1911 O   0  0  0  0  0  0  0  0  0  0  0  0
    5.7603   -1.5768    0.1046 C   0  0  0  0  0  0  0  0  0  0  0  0
    5.2289   -2.8782    0.0960 C   0  0  0  0  0  0  0  0  0  0  0  0
    2.8138   -3.7627   -0.1675 C   0  0  0  0  0  0  0  0  0  0  0  0
    0.0435    0.6974   -0.0518 C   0  0  0  0  0  0  0  0  0  0  0  0
   -1.1339   -1.4148   -0.0332 C   0  0  0  0  0  0  0  0  0  0  0  0
    7.1833   -1.1757    0.2287 C   0  0  0  0  0  0  0  0  0  0  0  0
   -1.1832    1.3504   -0.0420 C   0  0  0  0  0  0  0  0  0  0  0  0
   -2.3610   -0.7484   -0.0417 C   0  0  0  0  0  0  0  0  0  0  0  0
   -2.3843    0.6392   -0.0439 C   0  0  0  0  0  0  0  0  0  0  0  0
    4.2278    0.9570   -0.2048 H   0  0  0  0  0  0  0  0  0  0  0  0
    5.7663   -3.8142    0.1724 H   0  0  0  0  0  0  0  0  0  0  0  0
    2.1616   -3.7662    0.7110 H   0  0  0  0  0  0  0  0  0  0  0  0
    2.2114   -3.6114   -1.0688 H   0  0  0  0  0  0  0  0  0  0  0  0
    3.2643   -4.7582   -0.2462 H   0  0  0  0  0  0  0  0  0  0  0  0
   -1.1133   -2.5019   -0.0301 H   0  0  0  0  0  0  0  0  0  0  0  0
    7.4833   -0.5483   -0.6172 H   0  0  0  0  0  0  0  0  0  0  0  0
    7.3414   -0.6116    1.1534 H   0  0  0  0  0  0  0  0  0  0  0  0
    7.8397   -2.0516    0.2492 H   0  0  0  0  0  0  0  0  0  0  0  0
   -1.1994    2.4376   -0.0441 H   0  0  0  0  0  0  0  0  0  0  0  0
   -3.2883   -1.3148   -0.0517 H   0  0  0  0  0  0  0  0  0  0  0  0
   -3.3322    1.1733   -0.0504 H   0  0  0  0  0  0  0  0  0  0  0  0
  1  2  1  0  0  0  0
  1  3  2  0  0  0  0
  1  4  1  0  0  0  0
  2  5  1  0  0  0  0
  2  6  1  0  0  0  0
  3  7  1  0  0  0  0
  4  8  2  0  0  0  0
  4  9  1  0  0  0  0
  5 10  2  0  0  0  0
  6 11  2  0  0  0  0
  6 12  1  0  0  0  0
  7 13  2  0  0  0  0
  7 14  1  0  0  0  0
  8 13  1  0  0  0  0
  9 19  1  0  0  0  0
 10 15  1  0  0  0  0
 10 11  1  0  0  0  0
 11 20  1  0  0  0  0
 12 21  1  0  0  0  0
 12 22  1  0  0  0  0
 12 23  1  0  0  0  0
 13 16  1  0  0  0  0
 14 17  2  0  0  0  0
 14 24  1  0  0  0  0
 15 25  1  0  0  0  0
 15 26  1  0  0  0  0
 15 27  1  0  0  0  0
 16 18  2  0  0  0  0
 16 28  1  0  0  0  0
 17 18  1  0  0  0  0
 17 29  1  0  0  0  0
 18 30  1  0  0  0  0
M  END
>  <Mol_ID>
8664

>  <Formula>
C13H12N4O

>  <MolWeight>
240.26058

>  <Cat>
P2363

>  <Name>
WAY-324977

>  <Synonyms>
N/A

>  <Target>
Anti-infection

>  <Form>
free base

>  <CAS>
129227-36-7

>  <URL>
N/A

$$$$
