WAY-661794
 OpenBabel08302521443D

 36 39  0  0  0  0  0  0  0  0999 V2000
   -2.2669   -0.0295   -0.1014 C   0  0  0  0  0  0  0  0  0  0  0  0
   -3.7469   -0.0528   -0.0396 C   0  0  0  0  0  0  0  0  0  0  0  0
   -1.5509    0.9628   -0.5829 N   0  0  0  0  0  0  0  0  0  0  0  0
   -4.5412   -0.6835    0.9055 C   0  0  0  0  0  0  0  0  0  0  0  0
   -1.4577   -1.0434    0.3545 N   0  0  0  0  0  0  0  0  0  0  0  0
   -5.9118    0.3554   -0.6024 N   0  0  0  0  0  0  0  0  0  0  0  0
   -5.8259   -0.4171    0.4941 N   0  0  0  0  0  0  0  0  0  0  0  0
   -0.2405    0.6193   -0.3381 C   0  0  0  0  0  0  0  0  0  0  0  0
   -0.1548   -0.6572    0.2040 C   0  0  0  0  0  0  0  0  0  0  0  0
   -4.6365    0.6114   -0.9017 C   0  0  0  0  0  0  0  0  0  0  0  0
   -4.2406   -1.3216    2.1893 C   0  0  0  0  0  0  0  0  0  0  0  0
   -3.2174   -0.8091    3.0004 C   0  0  0  0  0  0  0  0  0  0  0  0
   -4.9819   -2.4073    2.6661 C   0  0  0  0  0  0  0  0  0  0  0  0
   -3.6571   -2.4560    4.7094 C   0  0  0  0  0  0  0  0  0  0  0  0
   -2.9150   -1.3788    4.2388 C   0  0  0  0  0  0  0  0  0  0  0  0
   -4.6938   -2.9623    3.9194 C   0  0  0  0  0  0  0  0  0  0  0  0
   -3.4795   -3.0843    5.9103 O   0  0  0  0  0  0  0  0  0  0  0  0
    0.9374    1.3486   -0.5510 C   0  0  0  0  0  0  0  0  0  0  0  0
    1.0526   -1.2927    0.4976 C   0  0  0  0  0  0  0  0  0  0  0  0
   -2.4483   -2.5747    6.7498 C   0  0  0  0  0  0  0  0  0  0  0  0
    2.2183   -0.5599    0.2519 C   0  0  0  0  0  0  0  0  0  0  0  0
    2.1649    0.7441   -0.2474 C   0  0  0  0  0  0  0  0  0  0  0  0
   -1.7845   -1.9162    0.7396 H   0  0  0  0  0  0  0  0  0  0  0  0
   -6.6897   -0.6879    0.9524 H   0  0  0  0  0  0  0  0  0  0  0  0
   -4.4035    1.2432   -1.7507 H   0  0  0  0  0  0  0  0  0  0  0  0
   -2.6459    0.0652    2.6891 H   0  0  0  0  0  0  0  0  0  0  0  0
   -5.7898   -2.8381    2.0805 H   0  0  0  0  0  0  0  0  0  0  0  0
   -2.1024   -0.9421    4.8119 H   0  0  0  0  0  0  0  0  0  0  0  0
   -5.2866   -3.7970    4.2878 H   0  0  0  0  0  0  0  0  0  0  0  0
    0.8900    2.3607   -0.9378 H   0  0  0  0  0  0  0  0  0  0  0  0
    1.0920   -2.3004    0.8967 H   0  0  0  0  0  0  0  0  0  0  0  0
   -1.4680   -2.6698    6.2712 H   0  0  0  0  0  0  0  0  0  0  0  0
   -2.6489   -1.5370    7.0379 H   0  0  0  0  0  0  0  0  0  0  0  0
   -2.4313   -3.1760    7.6635 H   0  0  0  0  0  0  0  0  0  0  0  0
    3.1867   -1.0132    0.4598 H   0  0  0  0  0  0  0  0  0  0  0  0
    3.0873    1.2976   -0.4101 H   0  0  0  0  0  0  0  0  0  0  0  0
  2  1  1  0  0  0  0
  3  1  2  0  0  0  0
  4  2  2  0  0  0  0
  5  1  1  0  0  0  0
  5 23  1  0  0  0  0
  6 10  2  0  0  0  0
  6  7  1  0  0  0  0
  7  4  1  0  0  0  0
  7 24  1  0  0  0  0
  8  3  1  0  0  0  0
  9  5  1  0  0  0  0
  9  8  2  0  0  0  0
 10  2  1  0  0  0  0
 10 25  1  0  0  0  0
 11  4  1  0  0  0  0
 12 11  2  0  0  0  0
 12 26  1  0  0  0  0
 13 11  1  0  0  0  0
 13 27  1  0  0  0  0
 14 16  1  0  0  0  0
 15 12  1  0  0  0  0
 15 14  2  0  0  0  0
 15 28  1  0  0  0  0
 16 13  2  0  0  0  0
 16 29  1  0  0  0  0
 17 14  1  0  0  0  0
 18  8  1  0  0  0  0
 18 30  1  0  0  0  0
 19  9  1  0  0  0  0
 19 31  1  0  0  0  0
 20 17  1  0  0  0  0
 20 32  1  0  0  0  0
 20 33  1  0  0  0  0
 20 34  1  0  0  0  0
 21 19  2  0  0  0  0
 21 22  1  0  0  0  0
 21 35  1  0  0  0  0
 22 18  2  0  0  0  0
 22 36  1  0  0  0  0
M  END
>  <Mol_ID>
9131

>  <Formula>
C17H14N4O

>  <MolWeight>
290.31926

>  <Cat>
P3212

>  <Name>
WAY-661794

>  <Synonyms>
N/A

>  <Target>
Androgen Receptor

>  <Form>
free base

>  <CAS>
896797-43-6

>  <URL>
N/A

$$$$
