WAY-604663
 OpenBabel08302521393D

 41 44  0  0  0  0  0  0  0  0999 V2000
    0.9629   -0.0028    0.0132 S   0  0  0  0  0  0  0  0  0  0  0  0
   -2.7646    3.4552    0.4771 N   0  0  0  0  0  0  0  0  0  0  0  0
   -0.9193    5.5669    0.4011 N   0  0  0  0  0  0  0  0  0  0  0  0
   -3.1852    4.7529    0.5814 C   0  0  0  0  0  0  0  0  0  0  0  0
   -2.2479    5.8099    0.5930 C   0  0  0  0  0  0  0  0  0  0  0  0
   -1.4466    3.2248    0.3424 C   0  0  0  0  0  0  0  0  0  0  0  0
    0.3863    1.6646    0.0870 C   0  0  0  0  0  0  0  0  0  0  0  0
   -0.9755    1.9200    0.2663 C   0  0  0  0  0  0  0  0  0  0  0  0
   -0.5225    4.2925    0.2776 C   0  0  0  0  0  0  0  0  0  0  0  0
    0.0144   -0.8654    0.6694 O   0  0  0  0  0  0  0  0  0  0  0  0
    2.3771   -0.0284    0.3142 O   0  0  0  0  0  0  0  0  0  0  0  0
    0.8377   -0.3249   -1.6304 N   0  0  0  0  0  0  0  0  0  0  0  0
   -2.5548    7.2449    0.8089 C   0  0  0  0  0  0  0  0  0  0  0  0
   -4.6570    4.9062    0.7344 C   0  0  0  0  0  0  0  0  0  0  0  0
    1.2978    2.7126    0.0031 C   0  0  0  0  0  0  0  0  0  0  0  0
    0.8279    4.0212    0.0988 C   0  0  0  0  0  0  0  0  0  0  0  0
   -3.4885    7.6840    1.7661 C   0  0  0  0  0  0  0  0  0  0  0  0
   -1.9396    8.2320    0.0160 C   0  0  0  0  0  0  0  0  0  0  0  0
   -5.3877    4.0067    1.5330 C   0  0  0  0  0  0  0  0  0  0  0  0
   -5.3704    5.9866    0.1803 C   0  0  0  0  0  0  0  0  0  0  0  0
   -2.3213    9.5746    0.0995 C   0  0  0  0  0  0  0  0  0  0  0  0
   -6.7201    4.2576    1.8805 C   0  0  0  0  0  0  0  0  0  0  0  0
   -6.6812    6.2739    0.5730 C   0  0  0  0  0  0  0  0  0  0  0  0
   -3.9136    9.0141    1.8125 C   0  0  0  0  0  0  0  0  0  0  0  0
   -3.3368    9.9578    0.9706 C   0  0  0  0  0  0  0  0  0  0  0  0
   -7.3493    5.4176    1.4401 C   0  0  0  0  0  0  0  0  0  0  0  0
   -1.6865    1.0994    0.3442 H   0  0  0  0  0  0  0  0  0  0  0  0
    0.1577   -1.0741   -1.7855 H   0  0  0  0  0  0  0  0  0  0  0  0
    1.7626   -0.5190   -2.0208 H   0  0  0  0  0  0  0  0  0  0  0  0
    2.3614    2.5254   -0.1304 H   0  0  0  0  0  0  0  0  0  0  0  0
    1.5306    4.8506    0.0364 H   0  0  0  0  0  0  0  0  0  0  0  0
   -3.9541    6.9748    2.4497 H   0  0  0  0  0  0  0  0  0  0  0  0
   -1.1636    7.9506   -0.6946 H   0  0  0  0  0  0  0  0  0  0  0  0
   -4.9040    3.1144    1.9278 H   0  0  0  0  0  0  0  0  0  0  0  0
   -4.8836    6.6800   -0.5041 H   0  0  0  0  0  0  0  0  0  0  0  0
   -1.8383   10.3157   -0.5321 H   0  0  0  0  0  0  0  0  0  0  0  0
   -7.2523    3.5608    2.5231 H   0  0  0  0  0  0  0  0  0  0  0  0
   -7.1614    7.1853    0.2247 H   0  0  0  0  0  0  0  0  0  0  0  0
   -4.7100    9.3017    2.4948 H   0  0  0  0  0  0  0  0  0  0  0  0
   -3.6722   10.9911    1.0000 H   0  0  0  0  0  0  0  0  0  0  0  0
   -8.3593    5.6512    1.7662 H   0  0  0  0  0  0  0  0  0  0  0  0
  2  6  2  0  0  0  0
  3  9  2  0  0  0  0
  4  2  1  0  0  0  0
  4  5  2  0  0  0  0
  5  3  1  0  0  0  0
  6  8  1  0  0  0  0
  7  1  1  0  0  0  0
  8  7  2  0  0  0  0
  8 27  1  0  0  0  0
  9 16  1  0  0  0  0
  9  6  1  0  0  0  0
 10  1  2  0  0  0  0
 11  1  2  0  0  0  0
 12  1  1  0  0  0  0
 12 28  1  0  0  0  0
 12 29  1  0  0  0  0
 13  5  1  0  0  0  0
 14  4  1  0  0  0  0
 15  7  1  0  0  0  0
 15 30  1  0  0  0  0
 16 15  2  0  0  0  0
 16 31  1  0  0  0  0
 17 13  2  0  0  0  0
 17 32  1  0  0  0  0
 18 13  1  0  0  0  0
 18 33  1  0  0  0  0
 19 14  2  0  0  0  0
 19 34  1  0  0  0  0
 20 14  1  0  0  0  0
 20 35  1  0  0  0  0
 21 18  2  0  0  0  0
 21 36  1  0  0  0  0
 22 19  1  0  0  0  0
 22 37  1  0  0  0  0
 23 20  2  0  0  0  0
 23 38  1  0  0  0  0
 24 17  1  0  0  0  0
 24 39  1  0  0  0  0
 25 21  1  0  0  0  0
 25 24  2  0  0  0  0
 25 40  1  0  0  0  0
 26 23  1  0  0  0  0
 26 22  2  0  0  0  0
 26 41  1  0  0  0  0
M  END
>  <Mol_ID>
8125

>  <Formula>
C20H15N3O2S

>  <MolWeight>
361.417

>  <Cat>
P2839

>  <Name>
WAY-604663

>  <Synonyms>
N/A

>  <Target>
Anti-infection

>  <Form>
free base

>  <CAS>
380347-87-5

>  <URL>
N/A

$$$$
