WAY-327512
 OpenBabel08302521443D

 42 45  0  0  0  0  0  0  0  0999 V2000
   -1.6367   -1.0120    0.0309 C   0  0  0  0  0  0  0  0  0  0  0  0
   -2.3387    0.2045    0.0742 C   0  0  0  0  0  0  0  0  0  0  0  0
   -0.2976   -0.6199   -0.0065 N   0  0  0  0  0  0  0  0  0  0  0  0
   -2.0645   -2.3100   -0.0486 N   0  0  0  0  0  0  0  0  0  0  0  0
   -3.7793    0.4605    0.1118 C   0  0  0  0  0  0  0  0  0  0  0  0
   -1.4684    1.2815    0.1191 N   0  0  0  0  0  0  0  0  0  0  0  0
   -0.2769    0.7466    0.0957 C   0  0  0  0  0  0  0  0  0  0  0  0
    0.9146   -1.2887   -0.1386 C   0  0  0  0  0  0  0  0  0  0  0  0
   -1.3525   -3.4732    0.4826 C   0  0  0  0  0  0  0  0  0  0  0  0
   -4.7028   -0.4234    0.6795 C   0  0  0  0  0  0  0  0  0  0  0  0
   -4.2525    1.7020   -0.3520 C   0  0  0  0  0  0  0  0  0  0  0  0
    0.9881    1.4256    0.1321 C   0  0  0  0  0  0  0  0  0  0  0  0
    2.0598   -0.5889   -0.0850 C   0  0  0  0  0  0  0  0  0  0  0  0
   -1.0455   -4.4197   -0.6889 C   0  0  0  0  0  0  0  0  0  0  0  0
   -2.1769   -4.1347    1.5965 C   0  0  0  0  0  0  0  0  0  0  0  0
   -6.0597   -0.0725    0.7796 C   0  0  0  0  0  0  0  0  0  0  0  0
   -5.6034    2.0544   -0.2511 C   0  0  0  0  0  0  0  0  0  0  0  0
    2.1240    0.7838    0.0604 N   0  0  0  0  0  0  0  0  0  0  0  0
   -0.5051   -5.7694   -0.2334 C   0  0  0  0  0  0  0  0  0  0  0  0
   -1.6505   -5.5179    1.9836 C   0  0  0  0  0  0  0  0  0  0  0  0
   -6.5053    1.1633    0.3221 C   0  0  0  0  0  0  0  0  0  0  0  0
   -1.4487   -6.4175    0.7701 C   0  0  0  0  0  0  0  0  0  0  0  0
   -3.0393   -2.4874   -0.2861 H   0  0  0  0  0  0  0  0  0  0  0  0
    0.9216   -2.3539   -0.2935 H   0  0  0  0  0  0  0  0  0  0  0  0
   -0.4146   -3.1924    0.9672 H   0  0  0  0  0  0  0  0  0  0  0  0
   -4.3818   -1.3726    1.0955 H   0  0  0  0  0  0  0  0  0  0  0  0
   -3.5608    2.4253   -0.7806 H   0  0  0  0  0  0  0  0  0  0  0  0
    0.9913    2.5220    0.2265 H   0  0  0  0  0  0  0  0  0  0  0  0
    3.0155   -1.1007   -0.1665 H   0  0  0  0  0  0  0  0  0  0  0  0
   -1.9496   -4.5809   -1.2898 H   0  0  0  0  0  0  0  0  0  0  0  0
   -0.3164   -3.9552   -1.3645 H   0  0  0  0  0  0  0  0  0  0  0  0
   -2.1508   -3.4900    2.4855 H   0  0  0  0  0  0  0  0  0  0  0  0
   -3.2304   -4.2131    1.3054 H   0  0  0  0  0  0  0  0  0  0  0  0
   -6.7632   -0.7606    1.2412 H   0  0  0  0  0  0  0  0  0  0  0  0
   -5.9396    3.0298   -0.5924 H   0  0  0  0  0  0  0  0  0  0  0  0
   -0.3784   -6.4268   -1.1012 H   0  0  0  0  0  0  0  0  0  0  0  0
    0.4870   -5.6416    0.2168 H   0  0  0  0  0  0  0  0  0  0  0  0
   -2.3501   -5.9925    2.6806 H   0  0  0  0  0  0  0  0  0  0  0  0
   -0.6966   -5.4128    2.5162 H   0  0  0  0  0  0  0  0  0  0  0  0
   -7.5537    1.4418    0.4246 H   0  0  0  0  0  0  0  0  0  0  0  0
   -2.4159   -6.6150    0.2918 H   0  0  0  0  0  0  0  0  0  0  0  0
   -1.0429   -7.3846    1.0870 H   0  0  0  0  0  0  0  0  0  0  0  0
  1  2  2  0  0  0  0
  1  3  1  0  0  0  0
  1  4  1  0  0  0  0
  2  5  1  0  0  0  0
  2  6  1  0  0  0  0
  3  7  1  0  0  0  0
  3  8  1  0  0  0  0
  4  9  1  0  0  0  0
  4 23  1  0  0  0  0
  5 10  2  0  0  0  0
  5 11  1  0  0  0  0
  6  7  2  0  0  0  0
  7 12  1  0  0  0  0
  8 13  2  0  0  0  0
  8 24  1  0  0  0  0
  9 14  1  0  0  0  0
  9 15  1  0  0  0  0
  9 25  1  0  0  0  0
 10 16  1  0  0  0  0
 10 26  1  0  0  0  0
 11 17  2  0  0  0  0
 11 27  1  0  0  0  0
 12 18  2  0  0  0  0
 12 28  1  0  0  0  0
 13 18  1  0  0  0  0
 13 29  1  0  0  0  0
 14 19  1  0  0  0  0
 14 30  1  0  0  0  0
 14 31  1  0  0  0  0
 15 20  1  0  0  0  0
 15 32  1  0  0  0  0
 15 33  1  0  0  0  0
 16 21  2  0  0  0  0
 16 34  1  0  0  0  0
 17 21  1  0  0  0  0
 17 35  1  0  0  0  0
 19 22  1  0  0  0  0
 19 36  1  0  0  0  0
 19 37  1  0  0  0  0
 20 22  1  0  0  0  0
 20 38  1  0  0  0  0
 20 39  1  0  0  0  0
 21 40  1  0  0  0  0
 22 41  1  0  0  0  0
 22 42  1  0  0  0  0
M  END
>  <Mol_ID>
8978

>  <Formula>
C18H20N4

>  <MolWeight>
292.3782

>  <Cat>
P2541

>  <Name>
WAY-327512

>  <Synonyms>
N/A

>  <Target>
NF-kB

>  <Form>
free base

>  <CAS>
252725-86-3

>  <URL>
N/A

$$$$
