WAY-636839
 OpenBabel08302521423D

 41 44  0  0  0  0  0  0  0  0999 V2000
   -1.5245    0.2999    0.1031 C   0  0  3  0  0  0  0  0  0  0  0  0
   -7.1537    4.5889    0.1842 S   0  0  0  0  0  0  0  0  0  0  0  0
   -5.5815    3.8953    0.1419 C   0  0  0  0  0  0  0  0  0  0  0  0
   -6.4011    6.1239    0.0352 C   0  0  0  0  0  0  0  0  0  0  0  0
   -4.6112    4.7734    0.0207 N   0  0  0  0  0  0  0  0  0  0  0  0
   -5.0865    6.0747   -0.0436 N   0  0  0  0  0  0  0  0  0  0  0  0
   -3.0447    0.5777    0.2165 C   0  0  0  0  0  0  0  0  0  0  0  0
   -0.7529    1.0297    1.2248 C   0  0  0  0  0  0  0  0  0  0  0  0
   -0.9817    0.7573   -1.2701 C   0  0  0  0  0  0  0  0  0  0  0  0
   -1.2331   -1.2246    0.2422 C   0  0  0  0  0  0  0  0  0  0  0  0
   -5.3267    2.1699    0.2560 S   0  0  0  0  0  0  0  0  0  0  0  0
    0.2758   -1.5110    0.1378 C   0  0  3  0  0  0  0  0  0  0  0  0
    0.5287    0.4799   -1.3789 C   0  0  3  0  0  0  0  0  0  0  0  0
    0.7571    0.7546    1.1183 C   0  0  3  0  0  0  0  0  0  0  0  0
   -3.5170    2.0369    0.1211 C   0  0  0  0  0  0  0  0  0  0  0  0
   -3.8300   -0.3605    0.3814 O   0  0  0  0  0  0  0  0  0  0  0  0
   -7.3222    7.6136   -0.0075 S   0  0  0  0  0  0  0  0  0  0  0  0
    1.2619    1.2315   -0.2544 C   0  0  0  0  0  0  0  0  0  0  0  0
    0.7861   -1.0273   -1.2289 C   0  0  0  0  0  0  0  0  0  0  0  0
    1.0105   -0.7549    1.2559 C   0  0  0  0  0  0  0  0  0  0  0  0
   -6.0170    8.8529   -0.1480 C   0  0  0  0  0  0  0  0  0  0  0  0
   -0.9167    2.1118    1.1703 H   0  0  0  0  0  0  0  0  0  0  0  0
   -1.1242    0.7097    2.2075 H   0  0  0  0  0  0  0  0  0  0  0  0
   -1.5176    0.2439   -2.0787 H   0  0  0  0  0  0  0  0  0  0  0  0
   -1.1544    1.8303   -1.4185 H   0  0  0  0  0  0  0  0  0  0  0  0
   -1.6090   -1.5982    1.2039 H   0  0  0  0  0  0  0  0  0  0  0  0
   -1.7653   -1.7875   -0.5360 H   0  0  0  0  0  0  0  0  0  0  0  0
    0.4599   -2.5874    0.2396 H   0  0  0  0  0  0  0  0  0  0  0  0
    0.8966    0.8213   -2.3529 H   0  0  0  0  0  0  0  0  0  0  0  0
    1.2866    1.2904    1.9132 H   0  0  0  0  0  0  0  0  0  0  0  0
   -3.0654    2.6087    0.9347 H   0  0  0  0  0  0  0  0  0  0  0  0
   -3.2115    2.4482   -0.8436 H   0  0  0  0  0  0  0  0  0  0  0  0
    2.3425    1.0634   -0.3355 H   0  0  0  0  0  0  0  0  0  0  0  0
    1.0983    2.3110   -0.3581 H   0  0  0  0  0  0  0  0  0  0  0  0
    0.2815   -1.5768   -2.0330 H   0  0  0  0  0  0  0  0  0  0  0  0
    1.8584   -1.2362   -1.3251 H   0  0  0  0  0  0  0  0  0  0  0  0
    2.0869   -0.9611    1.2074 H   0  0  0  0  0  0  0  0  0  0  0  0
    0.6638   -1.1056    2.2360 H   0  0  0  0  0  0  0  0  0  0  0  0
   -5.3487    8.8187    0.7171 H   0  0  0  0  0  0  0  0  0  0  0  0
   -5.4383    8.7095   -1.0648 H   0  0  0  0  0  0  0  0  0  0  0  0
   -6.4739    9.8457   -0.1858 H   0  0  0  0  0  0  0  0  0  0  0  0
  2  3  1  0  0  0  0
  3 11  1  0  0  0  0
  4  2  1  0  0  0  0
  5  3  2  0  0  0  0
  6  5  1  0  0  0  0
  6  4  2  0  0  0  0
  7  1  1  0  0  0  0
  8  1  1  0  0  0  0
  8 22  1  0  0  0  0
  8 23  1  0  0  0  0
  9  1  1  0  0  0  0
  9 24  1  0  0  0  0
  9 25  1  0  0  0  0
 10  1  1  0  0  0  0
 10 26  1  0  0  0  0
 10 27  1  0  0  0  0
 11 15  1  0  0  0  0
 12 10  1  0  0  0  0
 12 28  1  0  0  0  0
 13  9  1  0  0  0  0
 13 29  1  0  0  0  0
 14  8  1  0  0  0  0
 14 18  1  0  0  0  0
 14 30  1  0  0  0  0
 15  7  1  0  0  0  0
 15 31  1  0  0  0  0
 15 32  1  0  0  0  0
 16  7  2  0  0  0  0
 17  4  1  0  0  0  0
 18 13  1  0  0  0  0
 18 33  1  0  0  0  0
 18 34  1  0  0  0  0
 19 12  1  0  0  0  0
 19 13  1  0  0  0  0
 19 35  1  0  0  0  0
 19 36  1  0  0  0  0
 20 12  1  0  0  0  0
 20 14  1  0  0  0  0
 20 37  1  0  0  0  0
 20 38  1  0  0  0  0
 21 17  1  0  0  0  0
 21 39  1  0  0  0  0
 21 40  1  0  0  0  0
 21 41  1  0  0  0  0
M  END
>  <Mol_ID>
8476

>  <Formula>
C15H20N2OS3

>  <MolWeight>
340.5271

>  <Cat>
P3002

>  <Name>
WAY-636839

>  <Synonyms>
N/A

>  <Target>
11b-HSD1

>  <Form>
free base

>  <CAS>
792960-91-9

>  <URL>
N/A

$$$$
