WAY-657584
 OpenBabel08302521423D

 28 30  0  0  0  0  0  0  0  0999 V2000
    1.5591    1.1654   -0.0361 N   0  0  0  0  0  0  0  0  0  0  0  0
    1.9428    2.5066   -0.0744 C   0  0  0  0  0  0  0  0  0  0  0  0
    0.2290    0.6976   -0.0334 C   0  0  0  0  0  0  0  0  0  0  0  0
    3.3988    2.8428   -0.0778 C   0  0  0  0  0  0  0  0  0  0  0  0
    2.4486   -0.0065    0.0667 C   0  0  0  0  0  0  0  0  0  0  0  0
    4.2926    1.9910    0.4979 N   0  0  0  0  0  0  0  0  0  0  0  0
    1.1592    3.4546   -0.1529 O   0  0  0  0  0  0  0  0  0  0  0  0
    0.2117   -0.6995   -0.0262 C   0  0  0  0  0  0  0  0  0  0  0  0
    1.5918   -1.2606   -0.1182 C   0  0  0  0  0  0  0  0  0  0  0  0
    5.1166    4.3926   -0.7643 N   0  0  0  0  0  0  0  0  0  0  0  0
    3.8094    4.0249   -0.6817 C   0  0  0  0  0  0  0  0  0  0  0  0
   -0.9558    1.4131   -0.0302 C   0  0  0  0  0  0  0  0  0  0  0  0
    5.5902    2.3643    0.4210 C   0  0  0  0  0  0  0  0  0  0  0  0
    5.9944    3.5331   -0.2004 C   0  0  0  0  0  0  0  0  0  0  0  0
   -0.9784   -1.4107    0.0074 C   0  0  0  0  0  0  0  0  0  0  0  0
   -2.1635    0.7072    0.0060 C   0  0  0  0  0  0  0  0  0  0  0  0
   -2.1745   -0.6947    0.0331 C   0  0  0  0  0  0  0  0  0  0  0  0
    3.2432    0.0418   -0.6856 H   0  0  0  0  0  0  0  0  0  0  0  0
    2.8955   -0.0032    1.0685 H   0  0  0  0  0  0  0  0  0  0  0  0
    1.7971   -2.0051    0.6565 H   0  0  0  0  0  0  0  0  0  0  0  0
    1.7568   -1.7009   -1.1066 H   0  0  0  0  0  0  0  0  0  0  0  0
    3.0995    4.7109   -1.1337 H   0  0  0  0  0  0  0  0  0  0  0  0
   -0.9725    2.4969   -0.0493 H   0  0  0  0  0  0  0  0  0  0  0  0
    6.3067    1.6868    0.8729 H   0  0  0  0  0  0  0  0  0  0  0  0
    7.0404    3.8112   -0.2625 H   0  0  0  0  0  0  0  0  0  0  0  0
   -0.9833   -2.4959    0.0116 H   0  0  0  0  0  0  0  0  0  0  0  0
   -3.1034    1.2542    0.0169 H   0  0  0  0  0  0  0  0  0  0  0  0
   -3.1228   -1.2255    0.0671 H   0  0  0  0  0  0  0  0  0  0  0  0
  2  1  1  0  0  0  0
  3  1  1  0  0  0  0
  4  2  1  0  0  0  0
  5  1  1  0  0  0  0
  5 18  1  0  0  0  0
  5 19  1  0  0  0  0
  6  4  2  0  0  0  0
  7  2  2  0  0  0  0
  8  3  2  0  0  0  0
  8  9  1  0  0  0  0
  9  5  1  0  0  0  0
  9 20  1  0  0  0  0
  9 21  1  0  0  0  0
 10 11  2  0  0  0  0
 11  4  1  0  0  0  0
 11 22  1  0  0  0  0
 12  3  1  0  0  0  0
 12 23  1  0  0  0  0
 13  6  1  0  0  0  0
 13 24  1  0  0  0  0
 14 10  1  0  0  0  0
 14 13  2  0  0  0  0
 14 25  1  0  0  0  0
 15  8  1  0  0  0  0
 15 26  1  0  0  0  0
 16 12  2  0  0  0  0
 16 27  1  0  0  0  0
 17 16  1  0  0  0  0
 17 15  2  0  0  0  0
 17 28  1  0  0  0  0
M  END
>  <Mol_ID>
8548

>  <Formula>
C13H11N3O

>  <MolWeight>
225.24594

>  <Cat>
P3159

>  <Name>
WAY-657584

>  <Synonyms>
N/A

>  <Target>
Bcl-2

>  <Form>
free base

>  <CAS>
853352-52-0

>  <URL>
N/A

$$$$
