WAY-332087
 OpenBabel08302521443D

 50 52  0  0  0  0  0  0  0  0999 V2000
   -0.4151    1.2701    0.6382 C   0  0  0  0  0  0  0  0  0  0  0  0
   -1.6730    0.7238    0.8095 N   0  0  0  0  0  0  0  0  0  0  0  0
   -0.7498    3.5803   -0.9247 S   0  0  0  0  0  0  0  0  0  0  0  0
   -1.4680   -0.5817    0.7407 C   0  0  0  0  0  0  0  0  0  0  0  0
   -0.1447   -0.9312    0.7389 O   0  0  0  0  0  0  0  0  0  0  0  0
   -0.2126    2.7326    0.5608 C   0  0  0  0  0  0  0  0  0  0  0  0
    0.5252    0.2572    0.6979 C   0  0  0  0  0  0  0  0  0  0  0  0
   -2.5217    3.5339   -1.0538 C   0  0  0  0  0  0  0  0  0  0  0  0
   -3.1241    2.2110   -1.4101 C   0  0  0  0  0  0  0  0  0  0  0  0
   -2.4216   -1.6825    0.6094 C   0  0  0  0  0  0  0  0  0  0  0  0
   -0.4435    4.9821   -0.6759 O   0  0  0  0  0  0  0  0  0  0  0  0
   -0.1424    2.9579   -2.0895 O   0  0  0  0  0  0  0  0  0  0  0  0
   -4.5067    2.1938   -1.2896 N   0  0  0  0  0  0  0  0  0  0  0  0
   -2.4988    1.2333   -1.8091 O   0  0  0  0  0  0  0  0  0  0  0  0
   -2.0312   -2.9204    0.0742 C   0  0  0  0  0  0  0  0  0  0  0  0
   -3.7705   -1.5005    0.9361 C   0  0  0  0  0  0  0  0  0  0  0  0
   -5.2690    0.9806   -1.5341 C   0  0  0  0  0  0  0  0  0  0  0  0
   -7.8048    0.8610   -1.7303 C   0  0  0  0  0  0  0  0  0  0  0  0
   -9.0802    1.0038   -1.1717 C   0  0  0  0  0  0  0  0  0  0  0  0
   -6.6585    1.0894   -0.9509 C   0  0  0  0  0  0  0  0  0  0  0  0
   -4.7122   -2.5084    0.6898 C   0  0  0  0  0  0  0  0  0  0  0  0
   -2.9680   -3.9305   -0.1687 C   0  0  0  0  0  0  0  0  0  0  0  0
   -4.3200   -3.7252    0.1190 C   0  0  0  0  0  0  0  0  0  0  0  0
    1.9963    0.1676    0.7444 C   0  0  0  0  0  0  0  0  0  0  0  0
   -8.0945    1.5549    0.9584 C   0  0  0  0  0  0  0  0  0  0  0  0
   -9.2252    1.3630    0.1677 C   0  0  0  0  0  0  0  0  0  0  0  0
   -6.8232    1.4101    0.4047 C   0  0  0  0  0  0  0  0  0  0  0  0
   -5.3458   -4.7642   -0.2292 C   0  0  0  0  0  0  0  0  0  0  0  0
   -0.6826    3.2358    1.4104 H   0  0  0  0  0  0  0  0  0  0  0  0
    0.8619    2.9505    0.6146 H   0  0  0  0  0  0  0  0  0  0  0  0
   -2.9340    3.9164   -0.1147 H   0  0  0  0  0  0  0  0  0  0  0  0
   -2.7800    4.2386   -1.8548 H   0  0  0  0  0  0  0  0  0  0  0  0
   -5.0189    3.0664   -1.3004 H   0  0  0  0  0  0  0  0  0  0  0  0
   -0.9929   -3.0955   -0.2025 H   0  0  0  0  0  0  0  0  0  0  0  0
   -4.1035   -0.5517    1.3504 H   0  0  0  0  0  0  0  0  0  0  0  0
   -4.7476    0.1341   -1.0804 H   0  0  0  0  0  0  0  0  0  0  0  0
   -5.2948    0.8090   -2.6155 H   0  0  0  0  0  0  0  0  0  0  0  0
   -7.7182    0.5730   -2.7745 H   0  0  0  0  0  0  0  0  0  0  0  0
   -9.9654    0.8370   -1.7820 H   0  0  0  0  0  0  0  0  0  0  0  0
   -5.7598   -2.3248    0.9194 H   0  0  0  0  0  0  0  0  0  0  0  0
   -2.6331   -4.8663   -0.6115 H   0  0  0  0  0  0  0  0  0  0  0  0
    2.3288    0.0357    1.7793 H   0  0  0  0  0  0  0  0  0  0  0  0
    2.3542   -0.6912    0.1666 H   0  0  0  0  0  0  0  0  0  0  0  0
    2.4716    1.0683    0.3454 H   0  0  0  0  0  0  0  0  0  0  0  0
   -8.2027    1.8206    2.0075 H   0  0  0  0  0  0  0  0  0  0  0  0
  -10.2152    1.4864    0.5966 H   0  0  0  0  0  0  0  0  0  0  0  0
   -5.9485    1.5557    1.0366 H   0  0  0  0  0  0  0  0  0  0  0  0
   -5.9466   -5.0226    0.6479 H   0  0  0  0  0  0  0  0  0  0  0  0
   -6.0044   -4.3866   -1.0188 H   0  0  0  0  0  0  0  0  0  0  0  0
   -4.8779   -5.6837   -0.5972 H   0  0  0  0  0  0  0  0  0  0  0  0
  2  1  1  0  0  0  0
  3  6  1  0  0  0  0
  4  2  2  0  0  0  0
  4  5  1  0  0  0  0
  5  7  1  0  0  0  0
  6  1  1  0  0  0  0
  6 29  1  0  0  0  0
  6 30  1  0  0  0  0
  7  1  2  0  0  0  0
  8  3  1  0  0  0  0
  8 31  1  0  0  0  0
  8 32  1  0  0  0  0
  9  8  1  0  0  0  0
 10  4  1  0  0  0  0
 11  3  2  0  0  0  0
 12  3  2  0  0  0  0
 13  9  1  0  0  0  0
 13 33  1  0  0  0  0
 14  9  2  0  0  0  0
 15 10  2  0  0  0  0
 15 34  1  0  0  0  0
 16 10  1  0  0  0  0
 16 35  1  0  0  0  0
 17 13  1  0  0  0  0
 17 36  1  0  0  0  0
 17 37  1  0  0  0  0
 18 20  2  0  0  0  0
 18 38  1  0  0  0  0
 19 18  1  0  0  0  0
 19 39  1  0  0  0  0
 20 17  1  0  0  0  0
 21 16  2  0  0  0  0
 21 40  1  0  0  0  0
 22 15  1  0  0  0  0
 22 23  2  0  0  0  0
 22 41  1  0  0  0  0
 23 21  1  0  0  0  0
 24  7  1  0  0  0  0
 24 42  1  0  0  0  0
 24 43  1  0  0  0  0
 24 44  1  0  0  0  0
 25 27  2  0  0  0  0
 25 45  1  0  0  0  0
 26 25  1  0  0  0  0
 26 19  2  0  0  0  0
 26 46  1  0  0  0  0
 27 20  1  0  0  0  0
 27 47  1  0  0  0  0
 28 23  1  0  0  0  0
 28 48  1  0  0  0  0
 28 49  1  0  0  0  0
 28 50  1  0  0  0  0
M  END
>  <Mol_ID>
9231

>  <Formula>
C21H21ClN2O4S

>  <MolWeight>
432.92044

>  <Cat>
P2725

>  <Name>
WAY-332087

>  <Synonyms>
N/A

>  <Target>
beta-catenin

>  <Form>
free base

>  <CAS>
901723-31-7

>  <URL>
N/A

$$$$
