WAY-326101
 OpenBabel08302521433D

 46 48  0  0  0  0  0  0  0  0999 V2000
    4.0900   -3.5629    0.9684 C   0  0  0  0  0  0  0  0  0  0  0  0
    5.4195   -3.1085    1.1533 N   0  0  0  0  0  0  0  0  0  0  0  0
    3.3958   -2.4985    0.4059 C   0  0  0  0  0  0  0  0  0  0  0  0
    6.3693   -3.9048    1.7888 C   0  0  0  0  0  0  0  0  0  0  0  0
    5.6008   -1.8693    0.6456 N   0  0  0  0  0  0  0  0  0  0  0  0
    3.7066   -4.8199    1.3459 N   0  0  0  0  0  0  0  0  0  0  0  0
    1.9887   -2.3159    0.0514 C   0  0  0  0  0  0  0  0  0  0  0  0
    6.0186   -5.1292    2.2123 C   0  0  0  0  0  0  0  0  0  0  0  0
    4.3872   -1.5046    0.2309 C   0  0  0  0  0  0  0  0  0  0  0  0
    4.6191   -5.5559    1.9176 C   0  0  0  0  0  0  0  0  0  0  0  0
    7.7440   -3.3573    1.9656 C   0  0  0  0  0  0  0  0  0  0  0  0
    1.1295   -3.3949    0.2347 N   0  0  0  0  0  0  0  0  0  0  0  0
    1.6513   -1.2258   -0.4004 O   0  0  0  0  0  0  0  0  0  0  0  0
   -3.0263   -3.5698   -0.8684 C   0  0  0  0  0  0  0  0  0  0  0  0
   -0.2692   -3.4112   -0.0615 C   0  0  0  0  0  0  0  0  0  0  0  0
   -2.3223   -4.7036   -0.4276 C   0  0  0  0  0  0  0  0  0  0  0  0
   -2.3559   -2.3449   -0.7918 C   0  0  0  0  0  0  0  0  0  0  0  0
    7.8220   -2.5974    3.0914 F   0  0  0  0  0  0  0  0  0  0  0  0
    8.6401   -4.3729    2.1577 F   0  0  0  0  0  0  0  0  0  0  0  0
   -4.3981   -3.7066   -1.5325 C   0  0  3  0  0  0  0  0  0  0  0  0
   -1.0037   -2.2716   -0.4047 C   0  0  0  0  0  0  0  0  0  0  0  0
   -0.9653   -4.6252   -0.0300 C   0  0  0  0  0  0  0  0  0  0  0  0
    4.2582   -6.9602    2.3331 C   0  0  0  0  0  0  0  0  0  0  0  0
   -5.6380   -3.6471   -0.6126 C   0  0  0  0  0  0  0  0  0  0  0  0
   -4.5703   -2.7730   -2.7450 C   0  0  0  0  0  0  0  0  0  0  0  0
   -5.9214   -2.3163    0.0692 C   0  0  0  0  0  0  0  0  0  0  0  0
    6.6926   -5.7938    2.7383 H   0  0  0  0  0  0  0  0  0  0  0  0
    4.2546   -0.5126   -0.1907 H   0  0  0  0  0  0  0  0  0  0  0  0
    8.1044   -2.7734    1.1146 H   0  0  0  0  0  0  0  0  0  0  0  0
    1.5627   -4.2657    0.5275 H   0  0  0  0  0  0  0  0  0  0  0  0
   -2.8078   -5.6784   -0.4373 H   0  0  0  0  0  0  0  0  0  0  0  0
   -2.8496   -1.4209   -1.0780 H   0  0  0  0  0  0  0  0  0  0  0  0
   -4.4132   -4.7183   -1.9652 H   0  0  0  0  0  0  0  0  0  0  0  0
   -0.5542   -1.2841   -0.4077 H   0  0  0  0  0  0  0  0  0  0  0  0
   -0.4594   -5.5443    0.2557 H   0  0  0  0  0  0  0  0  0  0  0  0
    3.6750   -6.9189    3.2565 H   0  0  0  0  0  0  0  0  0  0  0  0
    3.6664   -7.4366    1.5467 H   0  0  0  0  0  0  0  0  0  0  0  0
    5.1558   -7.5621    2.5043 H   0  0  0  0  0  0  0  0  0  0  0  0
   -6.5199   -3.8902   -1.2235 H   0  0  0  0  0  0  0  0  0  0  0  0
   -5.5767   -4.4311    0.1509 H   0  0  0  0  0  0  0  0  0  0  0  0
   -4.5868   -1.7154   -2.4641 H   0  0  0  0  0  0  0  0  0  0  0  0
   -3.7533   -2.9137   -3.4616 H   0  0  0  0  0  0  0  0  0  0  0  0
   -5.5092   -2.9858   -3.2683 H   0  0  0  0  0  0  0  0  0  0  0  0
   -5.1640   -2.0871    0.8224 H   0  0  0  0  0  0  0  0  0  0  0  0
   -5.9750   -1.4886   -0.6436 H   0  0  0  0  0  0  0  0  0  0  0  0
   -6.8925   -2.3645    0.5774 H   0  0  0  0  0  0  0  0  0  0  0  0
  2  1  1  0  0  0  0
  3  1  2  0  0  0  0
  4  2  1  0  0  0  0
  4  8  2  0  0  0  0
  5  2  1  0  0  0  0
  5  9  2  0  0  0  0
  6  1  1  0  0  0  0
  7  3  1  0  0  0  0
  8 10  1  0  0  0  0
  8 27  1  0  0  0  0
  9  3  1  0  0  0  0
  9 28  1  0  0  0  0
 10  6  2  0  0  0  0
 11  4  1  0  0  0  0
 11 29  1  0  0  0  0
 12  7  1  0  0  0  0
 12 30  1  0  0  0  0
 13  7  2  0  0  0  0
 14 16  2  0  0  0  0
 15 12  1  0  0  0  0
 16 22  1  0  0  0  0
 16 31  1  0  0  0  0
 17 21  2  0  0  0  0
 17 14  1  0  0  0  0
 17 32  1  0  0  0  0
 18 11  1  0  0  0  0
 19 11  1  0  0  0  0
 20 14  1  0  0  0  0
 20 33  1  0  0  0  0
 21 15  1  0  0  0  0
 21 34  1  0  0  0  0
 22 15  2  0  0  0  0
 22 35  1  0  0  0  0
 23 10  1  0  0  0  0
 23 36  1  0  0  0  0
 23 37  1  0  0  0  0
 23 38  1  0  0  0  0
 24 20  1  0  0  0  0
 24 39  1  0  0  0  0
 24 40  1  0  0  0  0
 25 20  1  0  0  0  0
 25 41  1  0  0  0  0
 25 42  1  0  0  0  0
 25 43  1  0  0  0  0
 26 24  1  0  0  0  0
 26 44  1  0  0  0  0
 26 45  1  0  0  0  0
 26 46  1  0  0  0  0
M  END
>  <Mol_ID>
8889

>  <Formula>
C19H20F2N4O

>  <MolWeight>
358.3851064

>  <Cat>
P2447

>  <Name>
WAY-326101

>  <Synonyms>
N/A

>  <Target>
glucocerebrosidase

>  <Form>
free base

>  <CAS>
869714-27-2

>  <URL>
N/A

$$$$
