WAY-620520
 OpenBabel08302521433D

 36 40  0  0  0  0  0  0  0  0999 V2000
   -0.2086   -0.2712   -0.0004 N   0  0  0  0  0  0  0  0  0  0  0  0
   -0.4878    1.0564    0.0105 C   0  0  0  0  0  0  0  0  0  0  0  0
   -1.2715   -1.1469   -0.0151 C   0  0  0  0  0  0  0  0  0  0  0  0
   -2.5149   -0.3209   -0.0178 C   0  0  0  0  0  0  0  0  0  0  0  0
    0.5678    1.8196    0.0026 N   0  0  0  0  0  0  0  0  0  0  0  0
   -2.1740    1.3939    0.0222 S   0  0  0  0  0  0  0  0  0  0  0  0
    1.1564   -0.4067    0.0055 C   0  0  0  0  0  0  0  0  0  0  0  0
   -3.7249   -0.8991   -0.0405 C   0  0  0  0  0  0  0  0  0  0  0  0
    1.6133    0.9181   -0.0014 C   0  0  0  0  0  0  0  0  0  0  0  0
   -4.9958   -0.1564   -0.0070 C   0  0  0  0  0  0  0  0  0  0  0  0
   -5.6471    0.1607    1.2155 C   0  0  0  0  0  0  0  0  0  0  0  0
   -1.1382   -2.3558   -0.0222 O   0  0  0  0  0  0  0  0  0  0  0  0
   -6.8314    0.9380    1.1713 C   0  0  0  0  0  0  0  0  0  0  0  0
    2.0169   -1.5094    0.0137 C   0  0  0  0  0  0  0  0  0  0  0  0
   -5.5362    0.2693   -1.2298 C   0  0  0  0  0  0  0  0  0  0  0  0
    2.9941    1.1632   -0.0095 C   0  0  0  0  0  0  0  0  0  0  0  0
   -6.6957    1.0377   -1.2564 C   0  0  0  0  0  0  0  0  0  0  0  0
   -5.1797   -0.2582    2.4837 C   0  0  0  0  0  0  0  0  0  0  0  0
   -7.3315    1.3774   -0.0641 C   0  0  0  0  0  0  0  0  0  0  0  0
   -7.5002    1.2633    2.3630 C   0  0  0  0  0  0  0  0  0  0  0  0
    3.3896   -1.2376    0.0111 C   0  0  0  0  0  0  0  0  0  0  0  0
    3.8732    0.0731   -0.0030 C   0  0  0  0  0  0  0  0  0  0  0  0
   -5.8596    0.0686    3.6585 C   0  0  0  0  0  0  0  0  0  0  0  0
   -7.0204    0.8280    3.5975 C   0  0  0  0  0  0  0  0  0  0  0  0
   -3.8251   -1.9822   -0.0612 H   0  0  0  0  0  0  0  0  0  0  0  0
    1.6431   -2.5288    0.0232 H   0  0  0  0  0  0  0  0  0  0  0  0
   -5.0497    0.0156   -2.1689 H   0  0  0  0  0  0  0  0  0  0  0  0
    3.3655    2.1824   -0.0189 H   0  0  0  0  0  0  0  0  0  0  0  0
   -7.1027    1.3787   -2.2049 H   0  0  0  0  0  0  0  0  0  0  0  0
   -4.2765   -0.8571    2.5712 H   0  0  0  0  0  0  0  0  0  0  0  0
   -8.2299    1.9905   -0.1067 H   0  0  0  0  0  0  0  0  0  0  0  0
   -8.4109    1.8584    2.3378 H   0  0  0  0  0  0  0  0  0  0  0  0
    4.0963   -2.0662    0.0195 H   0  0  0  0  0  0  0  0  0  0  0  0
    4.9460    0.2527   -0.0074 H   0  0  0  0  0  0  0  0  0  0  0  0
   -5.4808   -0.2734    4.6179 H   0  0  0  0  0  0  0  0  0  0  0  0
   -7.5548    1.0814    4.5093 H   0  0  0  0  0  0  0  0  0  0  0  0
  2  1  1  0  0  0  0
  3  1  1  0  0  0  0
  4  3  1  0  0  0  0
  4  6  1  0  0  0  0
  5  2  2  0  0  0  0
  5  9  1  0  0  0  0
  6  2  1  0  0  0  0
  7  1  1  0  0  0  0
  8  4  2  0  0  0  0
  8 25  1  0  0  0  0
  9  7  2  0  0  0  0
 10  8  1  0  0  0  0
 11 10  1  0  0  0  0
 12  3  2  0  0  0  0
 13 11  2  0  0  0  0
 13 19  1  0  0  0  0
 14  7  1  0  0  0  0
 14 26  1  0  0  0  0
 15 10  2  0  0  0  0
 15 27  1  0  0  0  0
 16  9  1  0  0  0  0
 16 22  2  0  0  0  0
 16 28  1  0  0  0  0
 17 15  1  0  0  0  0
 17 29  1  0  0  0  0
 18 11  1  0  0  0  0
 18 30  1  0  0  0  0
 19 17  2  0  0  0  0
 19 31  1  0  0  0  0
 20 13  1  0  0  0  0
 20 24  2  0  0  0  0
 20 32  1  0  0  0  0
 21 14  2  0  0  0  0
 21 33  1  0  0  0  0
 22 21  1  0  0  0  0
 22 34  1  0  0  0  0
 23 18  2  0  0  0  0
 23 35  1  0  0  0  0
 24 23  1  0  0  0  0
 24 36  1  0  0  0  0
M  END
>  <Mol_ID>
8777

>  <Formula>
C20H12N2OS

>  <MolWeight>
328.38708

>  <Cat>
P2948

>  <Name>
WAY-620520

>  <Synonyms>
N/A

>  <Target>
antiinflammatory

>  <Form>
free base

>  <CAS>
877468-30-9

>  <URL>
N/A

$$$$
