WAY-328173
 OpenBabel08302521443D

 38 40  0  0  0  0  0  0  0  0999 V2000
   -0.4454   -1.0858   -0.0736 C   0  0  0  0  0  0  0  0  0  0  0  0
   -1.6230   -0.4358   -0.0390 N   0  0  0  0  0  0  0  0  0  0  0  0
    0.6093   -0.2086   -0.4133 C   0  0  0  0  0  0  0  0  0  0  0  0
   -0.0098    0.9902   -0.6818 C   0  0  0  0  0  0  0  0  0  0  0  0
   -1.3371    0.8673   -0.4040 O   0  0  0  0  0  0  0  0  0  0  0  0
   -0.3470   -2.5191    0.1775 C   0  0  0  0  0  0  0  0  0  0  0  0
   -2.8612   -5.3212    6.0947 N   0  0  0  0  0  0  0  0  0  0  0  0
   -2.4551   -4.4071    4.1224 N   0  0  0  0  0  0  0  0  0  0  0  0
   -3.0494   -5.4321    4.7993 C   0  0  0  0  0  0  0  0  0  0  0  0
    0.4352    2.2618   -1.2258 C   0  0  0  0  0  0  0  0  0  0  0  0
   -2.1064   -4.1871    6.2544 C   0  0  0  0  0  0  0  0  0  0  0  0
   -1.8205   -3.6152    5.0367 C   0  0  0  0  0  0  0  0  0  0  0  0
    0.7178   -3.0765    0.4182 O   0  0  0  0  0  0  0  0  0  0  0  0
   -1.5532   -3.1834    0.0990 N   0  0  0  0  0  0  0  0  0  0  0  0
   -0.4747    3.1215   -1.8608 C   0  0  0  0  0  0  0  0  0  0  0  0
    1.7902    2.6200   -1.2036 C   0  0  0  0  0  0  0  0  0  0  0  0
    1.3135    4.6298   -2.4603 C   0  0  0  0  0  0  0  0  0  0  0  0
    2.2265    3.7981   -1.8143 C   0  0  0  0  0  0  0  0  0  0  0  0
   -0.0392    4.2936   -2.4801 C   0  0  0  0  0  0  0  0  0  0  0  0
   -2.5732   -4.1483    2.7039 C   0  0  0  0  0  0  0  0  0  0  0  0
   -1.5372   -4.8990    1.8737 C   0  0  0  0  0  0  0  0  0  0  0  0
   -1.6815   -4.5918    0.3834 C   0  0  0  0  0  0  0  0  0  0  0  0
    1.6531   -0.4580   -0.5415 H   0  0  0  0  0  0  0  0  0  0  0  0
   -3.6074   -6.2186    4.3086 H   0  0  0  0  0  0  0  0  0  0  0  0
   -1.8119   -3.8411    7.2365 H   0  0  0  0  0  0  0  0  0  0  0  0
   -1.2579   -2.7333    4.7631 H   0  0  0  0  0  0  0  0  0  0  0  0
   -2.3662   -2.6292   -0.1592 H   0  0  0  0  0  0  0  0  0  0  0  0
   -1.5332    2.8700   -1.9072 H   0  0  0  0  0  0  0  0  0  0  0  0
    2.5254    1.9849   -0.7134 H   0  0  0  0  0  0  0  0  0  0  0  0
    1.6550    5.5344   -2.9540 H   0  0  0  0  0  0  0  0  0  0  0  0
    3.2810    4.0625   -1.7951 H   0  0  0  0  0  0  0  0  0  0  0  0
   -0.7530    4.9345   -2.9902 H   0  0  0  0  0  0  0  0  0  0  0  0
   -2.4821   -3.0639    2.5700 H   0  0  0  0  0  0  0  0  0  0  0  0
   -3.5904   -4.4298    2.4032 H   0  0  0  0  0  0  0  0  0  0  0  0
   -1.6439   -5.9789    2.0252 H   0  0  0  0  0  0  0  0  0  0  0  0
   -0.5297   -4.6346    2.2167 H   0  0  0  0  0  0  0  0  0  0  0  0
   -2.6604   -4.9132    0.0138 H   0  0  0  0  0  0  0  0  0  0  0  0
   -0.9114   -5.1287   -0.1813 H   0  0  0  0  0  0  0  0  0  0  0  0
  2  1  2  0  0  0  0
  3  1  1  0  0  0  0
  3 23  1  0  0  0  0
  4  3  2  0  0  0  0
  4  5  1  0  0  0  0
  5  2  1  0  0  0  0
  6  1  1  0  0  0  0
  7  9  2  0  0  0  0
  7 11  1  0  0  0  0
  8 20  1  0  0  0  0
  9  8  1  0  0  0  0
  9 24  1  0  0  0  0
 10  4  1  0  0  0  0
 11 12  2  0  0  0  0
 11 25  1  0  0  0  0
 12  8  1  0  0  0  0
 12 26  1  0  0  0  0
 13  6  2  0  0  0  0
 14  6  1  0  0  0  0
 14 27  1  0  0  0  0
 15 10  2  0  0  0  0
 15 28  1  0  0  0  0
 16 10  1  0  0  0  0
 16 29  1  0  0  0  0
 17 18  1  0  0  0  0
 17 30  1  0  0  0  0
 18 16  2  0  0  0  0
 18 31  1  0  0  0  0
 19 15  1  0  0  0  0
 19 17  2  0  0  0  0
 19 32  1  0  0  0  0
 20 21  1  0  0  0  0
 20 33  1  0  0  0  0
 20 34  1  0  0  0  0
 21 22  1  0  0  0  0
 21 35  1  0  0  0  0
 21 36  1  0  0  0  0
 22 14  1  0  0  0  0
 22 37  1  0  0  0  0
 22 38  1  0  0  0  0
M  END
>  <Mol_ID>
9006

>  <Formula>
C16H15ClN4O2

>  <MolWeight>
330.7689

>  <Cat>
P2571

>  <Name>
WAY-328173

>  <Synonyms>
N/A

>  <Target>
CFTR,Wnt/b-catenin

>  <Form>
free base

>  <CAS>
912790-59-1

>  <URL>
N/A

$$$$
