WAY-345989
 OpenBabel08302521343D

 37 39  0  0  0  0  0  0  0  0999 V2000
   -0.0361    0.4434   -0.0469 C   0  0  0  0  0  0  0  0  0  0  0  0
    0.3584   -0.8728   -0.1767 C   0  0  0  0  0  0  0  0  0  0  0  0
   -0.7590   -1.7436   -0.5070 C   0  0  0  0  0  0  0  0  0  0  0  0
   -1.9532   -1.0605   -0.2954 C   0  0  0  0  0  0  0  0  0  0  0  0
   -1.7196    0.6222   -0.1034 S   0  0  0  0  0  0  0  0  0  0  0  0
    1.8110   -1.2740   -0.0988 C   0  0  0  0  0  0  0  0  0  0  0  0
    2.7002   -0.1330    0.4216 C   0  0  0  0  0  0  0  0  0  0  0  0
    2.3289    1.2008   -0.2355 C   0  0  0  0  0  0  0  0  0  0  0  0
    0.8893    1.6103    0.1148 C   0  0  0  0  0  0  0  0  0  0  0  0
   -0.5592   -3.0741   -1.0974 C   0  0  0  0  0  0  0  0  0  0  0  0
    0.4750   -3.4012   -1.6710 O   0  0  0  0  0  0  0  0  0  0  0  0
   -1.5729   -3.9732   -1.0248 N   0  0  0  0  0  0  0  0  0  0  0  0
   -3.3034   -1.3782   -0.2733 N   0  0  0  0  0  0  0  0  0  0  0  0
   -3.7842   -2.4099    0.5189 C   0  0  0  0  0  0  0  0  0  0  0  0
   -3.0341   -3.1688    1.1487 O   0  0  0  0  0  0  0  0  0  0  0  0
   -5.3169   -2.6010    0.5522 C   0  0  0  0  0  0  0  0  0  0  0  0
   -6.2741   -1.9181   -0.4632 C   0  0  0  0  0  0  0  0  0  0  0  0
   -7.3437   -1.9546    0.6516 C   0  0  0  0  0  0  0  0  0  0  0  0
   -6.1661   -1.8998    1.6525 C   0  0  0  0  0  0  0  0  0  0  0  0
    2.1616   -1.5687   -1.0938 H   0  0  0  0  0  0  0  0  0  0  0  0
    1.9200   -2.1403    0.5653 H   0  0  0  0  0  0  0  0  0  0  0  0
    3.7521   -0.3721    0.2274 H   0  0  0  0  0  0  0  0  0  0  0  0
    2.5903   -0.0413    1.5106 H   0  0  0  0  0  0  0  0  0  0  0  0
    3.0241    1.9863    0.0796 H   0  0  0  0  0  0  0  0  0  0  0  0
    2.4308    1.1005   -1.3245 H   0  0  0  0  0  0  0  0  0  0  0  0
    0.8501    1.9673    1.1504 H   0  0  0  0  0  0  0  0  0  0  0  0
    0.5852    2.4372   -0.5373 H   0  0  0  0  0  0  0  0  0  0  0  0
   -2.1635   -3.9232   -0.1934 H   0  0  0  0  0  0  0  0  0  0  0  0
   -1.3352   -4.8986   -1.3456 H   0  0  0  0  0  0  0  0  0  0  0  0
   -3.9247   -0.5932   -0.4129 H   0  0  0  0  0  0  0  0  0  0  0  0
   -5.5127   -3.6878    0.5677 H   0  0  0  0  0  0  0  0  0  0  0  0
   -6.0083   -0.8992   -0.7634 H   0  0  0  0  0  0  0  0  0  0  0  0
   -6.5087   -2.5020   -1.3566 H   0  0  0  0  0  0  0  0  0  0  0  0
   -8.0454   -1.1175    0.6778 H   0  0  0  0  0  0  0  0  0  0  0  0
   -7.9126   -2.8926    0.6883 H   0  0  0  0  0  0  0  0  0  0  0  0
   -6.3199   -2.4627    2.5774 H   0  0  0  0  0  0  0  0  0  0  0  0
   -5.8504   -0.8805    1.9035 H   0  0  0  0  0  0  0  0  0  0  0  0
  1  2  2  0  0  0  0
  1  5  1  0  0  0  0
  2  3  1  0  0  0  0
  3  4  2  0  0  0  0
  3 10  1  0  0  0  0
  4  5  1  0  0  0  0
  4 13  1  0  0  0  0
  6  7  1  0  0  0  0
  6  2  1  0  0  0  0
  6 20  1  0  0  0  0
  6 21  1  0  0  0  0
  7  8  1  0  0  0  0
  7 22  1  0  0  0  0
  7 23  1  0  0  0  0
  8  9  1  0  0  0  0
  8 24  1  0  0  0  0
  8 25  1  0  0  0  0
  9  1  1  0  0  0  0
  9 26  1  0  0  0  0
  9 27  1  0  0  0  0
 10 11  2  0  0  0  0
 10 12  1  0  0  0  0
 12 28  1  0  0  0  0
 12 29  1  0  0  0  0
 13 14  1  0  0  0  0
 13 30  1  0  0  0  0
 14 15  2  0  0  0  0
 14 16  1  0  0  0  0
 16 17  1  0  0  0  0
 16 19  1  0  0  0  0
 16 31  1  0  0  0  0
 17 18  1  0  0  0  0
 17 32  1  0  0  0  0
 17 33  1  0  0  0  0
 18 19  1  0  0  0  0
 18 34  1  0  0  0  0
 18 35  1  0  0  0  0
 19 36  1  0  0  0  0
 19 37  1  0  0  0  0
M  END
>  <Mol_ID>
6468

>  <Formula>
C14H18N2O2S

>  <MolWeight>
278.36992

>  <Cat>
E2522

>  <Name>
WAY-345989

>  <Target>
Others

>  <Form>
free base

>  <CAS>
612829-80-8

>  <URL>
http://www.selleckchem.com/products/way-345989.html

$$$$
