WAY-328148
 OpenBabel08302521443D

 31 33  0  0  0  0  0  0  0  0999 V2000
   -0.2371   -1.2757   -0.0619 C   0  0  0  0  0  0  0  0  0  0  0  0
    0.9331   -0.6125   -0.1072 N   0  0  0  0  0  0  0  0  0  0  0  0
   -1.3247   -0.3753   -0.0026 C   0  0  0  0  0  0  0  0  0  0  0  0
    0.7858   -4.8381   -0.2591 C   0  0  0  0  0  0  0  0  0  0  0  0
   -0.3886   -2.7304   -0.0810 C   0  0  0  0  0  0  0  0  0  0  0  0
   -0.7715    0.8763    0.0008 C   0  0  0  0  0  0  0  0  0  0  0  0
   -0.3178   -5.5945   -0.2543 N   0  0  0  0  0  0  0  0  0  0  0  0
    1.9347   -5.6613   -0.3777 C   0  0  0  0  0  0  0  0  0  0  0  0
    0.5877    0.7433   -0.0634 O   0  0  0  0  0  0  0  0  0  0  0  0
    0.7836   -3.4568   -0.1726 N   0  0  0  0  0  0  0  0  0  0  0  0
    0.0868   -6.8982   -0.3777 O   0  0  0  0  0  0  0  0  0  0  0  0
    1.4392   -6.9428   -0.4546 C   0  0  0  0  0  0  0  0  0  0  0  0
   -1.3451    2.2164    0.0777 C   0  0  0  0  0  0  0  0  0  0  0  0
   -1.5206   -3.1998   -0.0192 O   0  0  0  0  0  0  0  0  0  0  0  0
   -2.7461    2.3704    0.1184 C   0  0  0  0  0  0  0  0  0  0  0  0
   -0.5483    3.3682    0.1412 C   0  0  0  0  0  0  0  0  0  0  0  0
   -2.5188    4.7521    0.3235 C   0  0  0  0  0  0  0  0  0  0  0  0
   -1.1353    4.6331    0.2665 C   0  0  0  0  0  0  0  0  0  0  0  0
   -3.3315    3.6319    0.2438 C   0  0  0  0  0  0  0  0  0  0  0  0
   -3.0760    5.9619    0.4614 F   0  0  0  0  0  0  0  0  0  0  0  0
    2.0153   -8.2885   -0.6041 C   0  0  0  0  0  0  0  0  0  0  0  0
   -2.3720   -0.6402    0.0440 H   0  0  0  0  0  0  0  0  0  0  0  0
    2.9725   -5.3693   -0.4128 H   0  0  0  0  0  0  0  0  0  0  0  0
    1.6642   -2.9573   -0.2021 H   0  0  0  0  0  0  0  0  0  0  0  0
   -3.4054    1.5067    0.0617 H   0  0  0  0  0  0  0  0  0  0  0  0
    0.5365    3.2958    0.1057 H   0  0  0  0  0  0  0  0  0  0  0  0
   -0.5203    5.5254    0.3279 H   0  0  0  0  0  0  0  0  0  0  0  0
   -4.4108    3.7411    0.2867 H   0  0  0  0  0  0  0  0  0  0  0  0
    1.6205   -8.9616    0.1647 H   0  0  0  0  0  0  0  0  0  0  0  0
    1.7549   -8.7048   -1.5830 H   0  0  0  0  0  0  0  0  0  0  0  0
    3.1040   -8.2685   -0.5155 H   0  0  0  0  0  0  0  0  0  0  0  0
  2  1  2  0  0  0  0
  3  1  1  0  0  0  0
  3 22  1  0  0  0  0
  4 10  1  0  0  0  0
  5  1  1  0  0  0  0
  6  3  2  0  0  0  0
  7  4  2  0  0  0  0
  8  4  1  0  0  0  0
  8 23  1  0  0  0  0
  9  2  1  0  0  0  0
  9  6  1  0  0  0  0
 10  5  1  0  0  0  0
 10 24  1  0  0  0  0
 11  7  1  0  0  0  0
 12  8  2  0  0  0  0
 12 11  1  0  0  0  0
 13  6  1  0  0  0  0
 14  5  2  0  0  0  0
 15 13  2  0  0  0  0
 15 25  1  0  0  0  0
 16 13  1  0  0  0  0
 16 26  1  0  0  0  0
 17 18  1  0  0  0  0
 17 19  2  0  0  0  0
 18 16  2  0  0  0  0
 18 27  1  0  0  0  0
 19 15  1  0  0  0  0
 19 28  1  0  0  0  0
 20 17  1  0  0  0  0
 21 12  1  0  0  0  0
 21 29  1  0  0  0  0
 21 30  1  0  0  0  0
 21 31  1  0  0  0  0
M  END
>  <Mol_ID>
9004

>  <Formula>
C14H10FN3O3

>  <MolWeight>
287.2459032

>  <Cat>
P2568

>  <Name>
WAY-328148

>  <Synonyms>
N/A

>  <Target>
mitochondrial permeability transition pore

>  <Form>
free base

>  <CAS>
912790-32-0

>  <URL>
N/A

$$$$
