WAY-325630
 OpenBabel08302521433D

 39 41  0  0  0  0  0  0  0  0999 V2000
   -0.3627    0.2026    0.1618 N   0  0  0  0  0  0  0  0  0  0  0  0
    0.9586    0.9011    0.2007 C   0  0  3  0  0  0  0  0  0  0  0  0
   -0.1615   -1.1490   -0.3624 C   0  0  3  0  0  0  0  0  0  0  0  0
    1.3936   -1.7128    0.3728 S   0  0  0  0  0  0  0  0  0  0  0  0
    1.0286    1.8411    1.4004 C   0  0  0  0  0  0  0  0  0  0  0  0
    2.1342   -0.0731    0.2672 C   0  0  0  0  0  0  0  0  0  0  0  0
   -0.1675   -1.2539   -1.8817 C   0  0  0  0  0  0  0  0  0  0  0  0
    1.8018    2.7784    1.5312 O   0  0  0  0  0  0  0  0  0  0  0  0
   -0.4035   -0.1561   -2.7266 C   0  0  0  0  0  0  0  0  0  0  0  0
    0.0155   -2.5114   -2.4843 C   0  0  0  0  0  0  0  0  0  0  0  0
   -0.4631   -1.6285   -6.0496 O   0  0  0  0  0  0  0  0  0  0  0  0
    0.1802    1.5135    2.4012 O   0  0  0  0  0  0  0  0  0  0  0  0
   -0.3090   -1.5698   -4.6890 C   0  0  0  0  0  0  0  0  0  0  0  0
   -3.1361   -2.6296  -10.2234 C   0  0  0  0  0  0  0  0  0  0  0  0
   -1.6554   -2.7456   -7.8587 C   0  0  0  0  0  0  0  0  0  0  0  0
   -0.9457   -2.8858   -6.5302 C   0  0  0  0  0  0  0  0  0  0  0  0
   -0.0384   -2.6664   -3.8721 C   0  0  0  0  0  0  0  0  0  0  0  0
   -0.4538   -0.3099   -4.1158 C   0  0  0  0  0  0  0  0  0  0  0  0
   -3.8588   -2.5803  -11.3506 F   0  0  0  0  0  0  0  0  0  0  0  0
   -2.4410   -3.7909   -9.9087 C   0  0  0  0  0  0  0  0  0  0  0  0
   -3.1044   -1.5264   -9.3802 C   0  0  0  0  0  0  0  0  0  0  0  0
   -1.7040   -3.8498   -8.7260 C   0  0  0  0  0  0  0  0  0  0  0  0
   -2.3687   -1.5846   -8.1943 C   0  0  0  0  0  0  0  0  0  0  0  0
   -0.6457    0.0919    1.1416 H   0  0  0  0  0  0  0  0  0  0  0  0
    1.0363    1.5359   -0.6883 H   0  0  0  0  0  0  0  0  0  0  0  0
   -0.9768   -1.7848    0.0043 H   0  0  0  0  0  0  0  0  0  0  0  0
    2.7230   -0.0253   -0.6549 H   0  0  0  0  0  0  0  0  0  0  0  0
    2.8010    0.0874    1.1192 H   0  0  0  0  0  0  0  0  0  0  0  0
   -0.5763    0.8357   -2.3151 H   0  0  0  0  0  0  0  0  0  0  0  0
    0.1959   -3.3926   -1.8702 H   0  0  0  0  0  0  0  0  0  0  0  0
    0.3478    2.1943    3.0876 H   0  0  0  0  0  0  0  0  0  0  0  0
   -0.0880   -3.5607   -6.6436 H   0  0  0  0  0  0  0  0  0  0  0  0
   -1.6758   -3.3240   -5.8363 H   0  0  0  0  0  0  0  0  0  0  0  0
    0.1261   -3.6570   -4.2834 H   0  0  0  0  0  0  0  0  0  0  0  0
   -0.6419    0.5551   -4.7469 H   0  0  0  0  0  0  0  0  0  0  0  0
   -2.4881   -4.6439  -10.5770 H   0  0  0  0  0  0  0  0  0  0  0  0
   -3.6623   -0.6330   -9.6427 H   0  0  0  0  0  0  0  0  0  0  0  0
   -1.1784   -4.7697   -8.4761 H   0  0  0  0  0  0  0  0  0  0  0  0
   -2.3651   -0.7243   -7.5283 H   0  0  0  0  0  0  0  0  0  0  0  0
  1 24  1  0  0  0  0
  2  1  1  0  0  0  0
  2 25  1  0  0  0  0
  3  1  1  0  0  0  0
  3 26  1  0  0  0  0
  4  3  1  0  0  0  0
  4  6  1  0  0  0  0
  5  2  1  0  0  0  0
  6  2  1  0  0  0  0
  6 27  1  0  0  0  0
  6 28  1  0  0  0  0
  7  3  1  0  0  0  0
  8  5  2  0  0  0  0
  9  7  2  0  0  0  0
  9 29  1  0  0  0  0
 10  7  1  0  0  0  0
 10 30  1  0  0  0  0
 11 13  1  0  0  0  0
 12  5  1  0  0  0  0
 12 31  1  0  0  0  0
 13 17  1  0  0  0  0
 13 18  2  0  0  0  0
 14 21  2  0  0  0  0
 14 20  1  0  0  0  0
 15 16  1  0  0  0  0
 16 11  1  0  0  0  0
 16 32  1  0  0  0  0
 16 33  1  0  0  0  0
 17 10  2  0  0  0  0
 17 34  1  0  0  0  0
 18  9  1  0  0  0  0
 18 35  1  0  0  0  0
 19 14  1  0  0  0  0
 20 22  2  0  0  0  0
 20 36  1  0  0  0  0
 21 23  1  0  0  0  0
 21 37  1  0  0  0  0
 22 15  1  0  0  0  0
 22 38  1  0  0  0  0
 23 15  2  0  0  0  0
 23 39  1  0  0  0  0
M  END
>  <Mol_ID>
8866

>  <Formula>
C17H16FNO3S

>  <MolWeight>
333.3772432

>  <Cat>
P2414

>  <Name>
WAY-325630

>  <Synonyms>
N/A

>  <Target>
ALDH2

>  <Form>
free base

>  <CAS>
869354-02-9

>  <URL>
N/A

$$$$
