WAY-325811
 OpenBabel08302521433D

 29 31  0  0  0  0  0  0  0  0999 V2000
   -4.9577    2.9224    2.2483 N   0  0  0  0  0  0  0  0  0  0  0  0
   -6.0847    2.7971    1.5093 C   0  0  0  0  0  0  0  0  0  0  0  0
   -3.9091    2.0341    2.0526 C   0  0  0  0  0  0  0  0  0  0  0  0
   -7.0461    3.5425    1.9688 N   0  0  0  0  0  0  0  0  0  0  0  0
   -5.9603    1.5551    0.3406 S   0  0  0  0  0  0  0  0  0  0  0  0
   -4.4952    0.8620    1.2784 C   0  0  3  0  0  0  0  0  0  0  0  0
   -5.1230    3.8540    3.2075 N   0  0  0  0  0  0  0  0  0  0  0  0
   -3.5300    0.0529    0.4227 C   0  0  0  0  0  0  0  0  0  0  0  0
   -6.4210    4.1585    3.0275 C   0  0  0  0  0  0  0  0  0  0  0  0
   -4.2341   -1.2197   -0.0125 C   0  0  0  0  0  0  0  0  0  0  0  0
   -2.8045    2.1695    2.5556 O   0  0  0  0  0  0  0  0  0  0  0  0
   -3.8793   -1.8849   -1.1407 N   0  0  0  0  0  0  0  0  0  0  0  0
   -5.1962   -1.6614    0.6178 O   0  0  0  0  0  0  0  0  0  0  0  0
   -2.6816   -1.9716   -1.8637 C   0  0  0  0  0  0  0  0  0  0  0  0
   -0.3497   -2.5420   -3.3003 C   0  0  0  0  0  0  0  0  0  0  0  0
    1.2385   -3.0086   -4.2109 Br  0  0  0  0  0  0  0  0  0  0  0  0
   -1.4473   -1.5211   -1.4024 C   0  0  0  0  0  0  0  0  0  0  0  0
   -2.7403   -2.6824   -3.0732 C   0  0  0  0  0  0  0  0  0  0  0  0
   -1.5793   -2.9639   -3.7935 C   0  0  0  0  0  0  0  0  0  0  0  0
   -0.2814   -1.8099   -2.1177 C   0  0  0  0  0  0  0  0  0  0  0  0
   -4.9202    0.2169    2.0590 H   0  0  0  0  0  0  0  0  0  0  0  0
   -3.1784    0.6305   -0.4391 H   0  0  0  0  0  0  0  0  0  0  0  0
   -2.6667   -0.2283    1.0339 H   0  0  0  0  0  0  0  0  0  0  0  0
   -6.9381    4.8340    3.6977 H   0  0  0  0  0  0  0  0  0  0  0  0
   -4.5944   -2.5537   -1.3997 H   0  0  0  0  0  0  0  0  0  0  0  0
   -1.3322   -1.0091   -0.4553 H   0  0  0  0  0  0  0  0  0  0  0  0
   -3.6929   -3.0390   -3.4619 H   0  0  0  0  0  0  0  0  0  0  0  0
   -1.6450   -3.5310   -4.7183 H   0  0  0  0  0  0  0  0  0  0  0  0
    0.6800   -1.4890   -1.7215 H   0  0  0  0  0  0  0  0  0  0  0  0
  2  1  1  0  0  0  0
  3  1  1  0  0  0  0
  4  2  2  0  0  0  0
  4  9  1  0  0  0  0
  5  2  1  0  0  0  0
  5  6  1  0  0  0  0
  6  3  1  0  0  0  0
  6 21  1  0  0  0  0
  7  1  1  0  0  0  0
  8  6  1  0  0  0  0
  8 22  1  0  0  0  0
  8 23  1  0  0  0  0
  9  7  2  0  0  0  0
  9 24  1  0  0  0  0
 10  8  1  0  0  0  0
 11  3  2  0  0  0  0
 12 10  1  0  0  0  0
 12 25  1  0  0  0  0
 13 10  2  0  0  0  0
 14 12  1  0  0  0  0
 15 19  2  0  0  0  0
 16 15  1  0  0  0  0
 17 14  1  0  0  0  0
 17 26  1  0  0  0  0
 18 14  2  0  0  0  0
 18 27  1  0  0  0  0
 19 18  1  0  0  0  0
 19 28  1  0  0  0  0
 20 17  2  0  0  0  0
 20 15  1  0  0  0  0
 20 29  1  0  0  0  0
M  END
>  <Mol_ID>
8882

>  <Formula>
C12H9BrN4O2S

>  <MolWeight>
353.19446

>  <Cat>
P2430

>  <Name>
WAY-325811

>  <Synonyms>
N/A

>  <Target>
Anti-infection

>  <Form>
free base

>  <CAS>
869632-12-2

>  <URL>
N/A

$$$$
