WAY-326357
 OpenBabel08302521433D

 33 35  0  0  0  0  0  0  0  0999 V2000
   -5.7513    0.6884    3.3101 N   0  0  0  0  0  0  0  0  0  0  0  0
   -5.0678   -0.0395    4.2250 C   0  0  0  0  0  0  0  0  0  0  0  0
   -6.0141    0.1496    2.0605 C   0  0  0  0  0  0  0  0  0  0  0  0
   -5.1416    0.4949    5.4147 N   0  0  0  0  0  0  0  0  0  0  0  0
   -4.5331   -1.5468    3.5952 S   0  0  0  0  0  0  0  0  0  0  0  0
   -5.6860   -1.3376    2.1474 C   0  0  3  0  0  0  0  0  0  0  0  0
   -6.2646    1.8014    3.8743 N   0  0  0  0  0  0  0  0  0  0  0  0
   -5.3598   -2.0214    0.8286 C   0  0  0  0  0  0  0  0  0  0  0  0
   -5.8917    1.6205    5.1527 C   0  0  0  0  0  0  0  0  0  0  0  0
   -4.0881   -1.5631    0.1585 C   0  0  0  0  0  0  0  0  0  0  0  0
   -6.5857    0.7565    1.1697 O   0  0  0  0  0  0  0  0  0  0  0  0
   -3.8523   -2.2399   -1.0336 N   0  0  0  0  0  0  0  0  0  0  0  0
   -3.3876   -0.6896    0.6592 O   0  0  0  0  0  0  0  0  0  0  0  0
   -2.6505   -2.2143   -1.7739 C   0  0  0  0  0  0  0  0  0  0  0  0
   -0.3093   -2.0759   -3.3292 C   0  0  0  0  0  0  0  0  0  0  0  0
   -1.4549   -1.7503   -1.2262 C   0  0  0  0  0  0  0  0  0  0  0  0
   -2.6443   -2.6931   -3.0890 C   0  0  0  0  0  0  0  0  0  0  0  0
   -1.4754   -2.6250   -3.8626 C   0  0  0  0  0  0  0  0  0  0  0  0
   -0.2926   -1.6849   -1.9952 C   0  0  0  0  0  0  0  0  0  0  0  0
    0.7708   -1.9881   -4.1644 O   0  0  0  0  0  0  0  0  0  0  0  0
    1.5726   -0.8262   -3.9454 C   0  0  0  0  0  0  0  0  0  0  0  0
   -6.6168   -1.7994    2.5036 H   0  0  0  0  0  0  0  0  0  0  0  0
   -5.2810   -3.1030    0.9929 H   0  0  0  0  0  0  0  0  0  0  0  0
   -6.1837   -1.8499    0.1246 H   0  0  0  0  0  0  0  0  0  0  0  0
   -6.1964    2.3143    5.9282 H   0  0  0  0  0  0  0  0  0  0  0  0
   -4.6381   -2.7010   -1.4771 H   0  0  0  0  0  0  0  0  0  0  0  0
   -1.3881   -1.4464   -0.1867 H   0  0  0  0  0  0  0  0  0  0  0  0
   -3.5414   -3.1024   -3.5461 H   0  0  0  0  0  0  0  0  0  0  0  0
   -1.4803   -2.9775   -4.8915 H   0  0  0  0  0  0  0  0  0  0  0  0
    0.6155   -1.3310   -1.5170 H   0  0  0  0  0  0  0  0  0  0  0  0
    0.9609    0.0839   -3.9499 H   0  0  0  0  0  0  0  0  0  0  0  0
    2.1449   -0.9039   -3.0154 H   0  0  0  0  0  0  0  0  0  0  0  0
    2.2920   -0.7508   -4.7658 H   0  0  0  0  0  0  0  0  0  0  0  0
  2  1  1  0  0  0  0
  3  1  1  0  0  0  0
  4  2  2  0  0  0  0
  4  9  1  0  0  0  0
  5  2  1  0  0  0  0
  6  3  1  0  0  0  0
  6  5  1  0  0  0  0
  6 22  1  0  0  0  0
  7  1  1  0  0  0  0
  8  6  1  0  0  0  0
  8 23  1  0  0  0  0
  8 24  1  0  0  0  0
  9  7  2  0  0  0  0
  9 25  1  0  0  0  0
 10  8  1  0  0  0  0
 11  3  2  0  0  0  0
 12 10  1  0  0  0  0
 12 26  1  0  0  0  0
 13 10  2  0  0  0  0
 14 12  1  0  0  0  0
 15 18  2  0  0  0  0
 15 19  1  0  0  0  0
 16 14  1  0  0  0  0
 16 27  1  0  0  0  0
 17 14  2  0  0  0  0
 17 28  1  0  0  0  0
 18 17  1  0  0  0  0
 18 29  1  0  0  0  0
 19 16  2  0  0  0  0
 19 30  1  0  0  0  0
 20 15  1  0  0  0  0
 21 20  1  0  0  0  0
 21 31  1  0  0  0  0
 21 32  1  0  0  0  0
 21 33  1  0  0  0  0
M  END
>  <Mol_ID>
8912

>  <Formula>
C13H12N4O3S

>  <MolWeight>
304.32438

>  <Cat>
P2470

>  <Name>
WAY-326357

>  <Synonyms>
N/A

>  <Target>
Others

>  <Form>
free base

>  <CAS>
870757-00-9

>  <URL>
N/A

$$$$
