WAY-658725
 OpenBabel08302521433D

 37 40  0  0  0  0  0  0  0  0999 V2000
    0.6753   -0.1270    0.7886 C   0  0  0  0  0  0  0  0  0  0  0  0
    1.9569   -0.5932    0.7669 C   0  0  0  0  0  0  0  0  0  0  0  0
    0.4396    0.9289   -0.0785 C   0  0  0  0  0  0  0  0  0  0  0  0
   -0.3228   -0.8853    1.2875 N   0  0  0  0  0  0  0  0  0  0  0  0
    2.4389   -0.9408   -0.4592 C   0  0  0  0  0  0  0  0  0  0  0  0
    3.0124    0.1458    1.4346 O   0  0  0  0  0  0  0  0  0  0  0  0
    1.4066    1.1647   -1.0781 C   0  0  0  0  0  0  0  0  0  0  0  0
   -0.8414    1.4899   -0.0697 C   0  0  0  0  0  0  0  0  0  0  0  0
   -1.5834   -0.4949    1.0207 C   0  0  0  0  0  0  0  0  0  0  0  0
    3.4295   -2.0743   -0.3089 C   0  0  0  0  0  0  0  0  0  0  0  0
    2.3346    0.1226   -1.3595 C   0  0  0  0  0  0  0  0  0  0  0  0
    4.3333   -0.4093    1.0724 C   0  0  0  0  0  0  0  0  0  0  0  0
   -1.8868    0.7242    0.4425 C   0  0  0  0  0  0  0  0  0  0  0  0
    4.2943   -1.8777    0.9171 N   0  0  0  0  0  0  0  0  0  0  0  0
    3.6934   -2.3974    2.1865 C   0  0  0  0  0  0  0  0  0  0  0  0
    4.6476   -2.6717    3.3446 C   0  0  0  0  0  0  0  0  0  0  0  0
    4.8372   -1.7345    4.3754 C   0  0  0  0  0  0  0  0  0  0  0  0
    5.1775   -3.9620    3.5065 C   0  0  0  0  0  0  0  0  0  0  0  0
    5.4717   -2.0965    5.5689 C   0  0  0  0  0  0  0  0  0  0  0  0
    5.7935   -4.3301    4.7019 C   0  0  0  0  0  0  0  0  0  0  0  0
    5.9373   -3.4092    5.7235 C   0  0  0  0  0  0  0  0  0  0  0  0
    1.3389    2.0428   -1.7125 H   0  0  0  0  0  0  0  0  0  0  0  0
   -1.0578    2.4085   -0.6023 H   0  0  0  0  0  0  0  0  0  0  0  0
   -2.3563   -1.2224    1.2527 H   0  0  0  0  0  0  0  0  0  0  0  0
    2.8788   -3.0255   -0.2419 H   0  0  0  0  0  0  0  0  0  0  0  0
    4.0474   -2.1436   -1.2110 H   0  0  0  0  0  0  0  0  0  0  0  0
    2.9955    0.2127   -2.2152 H   0  0  0  0  0  0  0  0  0  0  0  0
    5.0630   -0.1175    1.8318 H   0  0  0  0  0  0  0  0  0  0  0  0
    4.7027    0.0575    0.1414 H   0  0  0  0  0  0  0  0  0  0  0  0
   -2.9183    1.0228    0.3020 H   0  0  0  0  0  0  0  0  0  0  0  0
    2.9598   -1.7151    2.6348 H   0  0  0  0  0  0  0  0  0  0  0  0
    3.1086   -3.3060    2.0043 H   0  0  0  0  0  0  0  0  0  0  0  0
    4.4398   -0.7212    4.2875 H   0  0  0  0  0  0  0  0  0  0  0  0
    5.0437   -4.7110    2.7300 H   0  0  0  0  0  0  0  0  0  0  0  0
    5.5668   -1.3724    6.3678 H   0  0  0  0  0  0  0  0  0  0  0  0
    6.1541   -5.3462    4.8367 H   0  0  0  0  0  0  0  0  0  0  0  0
    6.3600   -3.7063    6.6884 H   0  0  0  0  0  0  0  0  0  0  0  0
  1  2  1  0  0  0  0
  1  3  1  0  0  0  0
  1  4  2  0  0  0  0
  2  5  2  0  0  0  0
  2  6  1  0  0  0  0
  3  7  1  0  0  0  0
  3  8  2  0  0  0  0
  4  9  1  0  0  0  0
  5 10  1  0  0  0  0
  5 11  1  0  0  0  0
  6 12  1  0  0  0  0
  7 11  2  0  0  0  0
  7 22  1  0  0  0  0
  8 13  1  0  0  0  0
  8 23  1  0  0  0  0
  9 13  2  0  0  0  0
  9 24  1  0  0  0  0
 10 14  1  0  0  0  0
 10 25  1  0  0  0  0
 10 26  1  0  0  0  0
 11 27  1  0  0  0  0
 12 14  1  0  0  0  0
 12 28  1  0  0  0  0
 12 29  1  0  0  0  0
 13 30  1  0  0  0  0
 14 15  1  0  0  0  0
 15 16  1  0  0  0  0
 15 31  1  0  0  0  0
 15 32  1  0  0  0  0
 16 17  2  0  0  0  0
 16 18  1  0  0  0  0
 17 19  1  0  0  0  0
 17 33  1  0  0  0  0
 18 20  2  0  0  0  0
 18 34  1  0  0  0  0
 19 21  2  0  0  0  0
 19 35  1  0  0  0  0
 20 21  1  0  0  0  0
 20 36  1  0  0  0  0
 21 37  1  0  0  0  0
M  END
>  <Mol_ID>
8833

>  <Formula>
C18H15ClN2O

>  <MolWeight>
310.7775

>  <Cat>
P3176

>  <Name>
WAY-658725

>  <Synonyms>
N/A

>  <Target>
sAPPb,Ab

>  <Form>
free base

>  <CAS>
857040-20-1

>  <URL>
N/A

$$$$
