WAY-620048
 OpenBabel08302521433D

 42 45  0  0  0  0  0  0  0  0999 V2000
   -0.9621   -0.9342    0.2818 C   0  0  0  0  0  0  0  0  0  0  0  0
   -0.5872    0.3865    0.1444 C   0  0  0  0  0  0  0  0  0  0  0  0
   -1.6502    1.3691    0.0429 C   0  0  0  0  0  0  0  0  0  0  0  0
   -2.2268   -1.4159    0.3581 N   0  0  0  0  0  0  0  0  0  0  0  0
    0.3766   -1.9882    0.2580 S   0  0  0  0  0  0  0  0  0  0  0  0
   -2.9153    0.8218    0.0376 N   0  0  0  0  0  0  0  0  0  0  0  0
    0.8360    0.5421    0.1094 C   0  0  0  0  0  0  0  0  0  0  0  0
   -3.1582   -0.5272    0.1869 C   0  0  0  0  0  0  0  0  0  0  0  0
    1.4648   -0.6907    0.1078 C   0  0  0  0  0  0  0  0  0  0  0  0
   -4.9597   -1.2743   -1.3379 N   0  0  0  0  0  0  0  0  0  0  0  0
   -1.4638    2.5800   -0.0528 O   0  0  0  0  0  0  0  0  0  0  0  0
   -4.6153   -0.9748    0.0771 C   0  0  0  0  0  0  0  0  0  0  0  0
    1.6107    1.8241    0.0290 C   0  0  0  0  0  0  0  0  0  0  0  0
    2.9414   -0.9126    0.0315 C   0  0  0  0  0  0  0  0  0  0  0  0
   -6.3597   -1.7379   -1.4131 C   0  0  0  0  0  0  0  0  0  0  0  0
   -4.0554   -2.2987   -1.9053 C   0  0  0  0  0  0  0  0  0  0  0  0
    3.1041    1.6017    0.3296 C   0  0  0  0  0  0  0  0  0  0  0  0
    3.6559    0.3737   -0.4085 C   0  0  0  0  0  0  0  0  0  0  0  0
   -4.4078   -2.6457   -3.3495 C   0  0  0  0  0  0  0  0  0  0  0  0
   -6.7775   -2.0790   -2.8470 C   0  0  0  0  0  0  0  0  0  0  0  0
   -5.8469   -3.1170   -3.4612 C   0  0  0  0  0  0  0  0  0  0  0  0
   -3.6761    1.4684   -0.1098 H   0  0  0  0  0  0  0  0  0  0  0  0
   -4.7637   -1.8488    0.7232 H   0  0  0  0  0  0  0  0  0  0  0  0
   -5.2555   -0.1642    0.4445 H   0  0  0  0  0  0  0  0  0  0  0  0
    1.4985    2.2474   -0.9762 H   0  0  0  0  0  0  0  0  0  0  0  0
    1.2096    2.5520    0.7433 H   0  0  0  0  0  0  0  0  0  0  0  0
    3.1835   -1.7205   -0.6708 H   0  0  0  0  0  0  0  0  0  0  0  0
    3.3070   -1.2135    1.0209 H   0  0  0  0  0  0  0  0  0  0  0  0
   -7.0284   -0.9520   -1.0419 H   0  0  0  0  0  0  0  0  0  0  0  0
   -6.5115   -2.6209   -0.7774 H   0  0  0  0  0  0  0  0  0  0  0  0
   -4.0642   -3.2092   -1.2912 H   0  0  0  0  0  0  0  0  0  0  0  0
   -3.0273   -1.9260   -1.9376 H   0  0  0  0  0  0  0  0  0  0  0  0
    3.6724    2.4952    0.0501 H   0  0  0  0  0  0  0  0  0  0  0  0
    3.2427    1.4578    1.4092 H   0  0  0  0  0  0  0  0  0  0  0  0
    3.5280    0.5167   -1.4893 H   0  0  0  0  0  0  0  0  0  0  0  0
    4.7313    0.2737   -0.2240 H   0  0  0  0  0  0  0  0  0  0  0  0
   -3.7289   -3.4239   -3.7166 H   0  0  0  0  0  0  0  0  0  0  0  0
   -4.2559   -1.7636   -3.9846 H   0  0  0  0  0  0  0  0  0  0  0  0
   -6.7674   -1.1695   -3.4608 H   0  0  0  0  0  0  0  0  0  0  0  0
   -7.8050   -2.4597   -2.8549 H   0  0  0  0  0  0  0  0  0  0  0  0
   -6.1058   -3.2900   -4.5112 H   0  0  0  0  0  0  0  0  0  0  0  0
   -5.9618   -4.0737   -2.9367 H   0  0  0  0  0  0  0  0  0  0  0  0
  2  1  2  0  0  0  0
  3  2  1  0  0  0  0
  3  6  1  0  0  0  0
  4  1  1  0  0  0  0
  5  1  1  0  0  0  0
  6  8  1  0  0  0  0
  6 22  1  0  0  0  0
  7  2  1  0  0  0  0
  8  4  2  0  0  0  0
  9  5  1  0  0  0  0
  9  7  2  0  0  0  0
 10 12  1  0  0  0  0
 11  3  2  0  0  0  0
 12  8  1  0  0  0  0
 12 23  1  0  0  0  0
 12 24  1  0  0  0  0
 13  7  1  0  0  0  0
 13 25  1  0  0  0  0
 13 26  1  0  0  0  0
 14  9  1  0  0  0  0
 14 27  1  0  0  0  0
 14 28  1  0  0  0  0
 15 10  1  0  0  0  0
 15 29  1  0  0  0  0
 15 30  1  0  0  0  0
 16 10  1  0  0  0  0
 16 31  1  0  0  0  0
 16 32  1  0  0  0  0
 17 13  1  0  0  0  0
 17 33  1  0  0  0  0
 17 34  1  0  0  0  0
 18 14  1  0  0  0  0
 18 17  1  0  0  0  0
 18 35  1  0  0  0  0
 18 36  1  0  0  0  0
 19 16  1  0  0  0  0
 19 37  1  0  0  0  0
 19 38  1  0  0  0  0
 20 15  1  0  0  0  0
 20 21  1  0  0  0  0
 20 39  1  0  0  0  0
 20 40  1  0  0  0  0
 21 19  1  0  0  0  0
 21 41  1  0  0  0  0
 21 42  1  0  0  0  0
M  END
>  <Mol_ID>
8758

>  <Formula>
C16H21N3OS

>  <MolWeight>
303.42244

>  <Cat>
P2927

>  <Name>
WAY-620048

>  <Synonyms>
N/A

>  <Target>
Dopamine D2 Receptor,Histamine H1 receptor

>  <Form>
free base

>  <CAS>
20886-96-8

>  <URL>
N/A

$$$$
