WAY-607632
 OpenBabel08302521433D

 37 39  0  0  0  0  0  0  0  0999 V2000
   -0.3253   -1.2010   -0.0686 N   0  0  0  0  0  0  0  0  0  0  0  0
    0.9499   -0.6186   -0.1048 C   0  0  0  0  0  0  0  0  0  0  0  0
    0.7892    0.6952   -0.1286 N   0  0  0  0  0  0  0  0  0  0  0  0
   -1.2085   -0.1434   -0.0942 C   0  0  0  0  0  0  0  0  0  0  0  0
   -0.5466    0.9869   -0.1390 N   0  0  0  0  0  0  0  0  0  0  0  0
   -2.9359   -0.2481    0.0014 S   0  0  0  0  0  0  0  0  0  0  0  0
    2.2807   -1.2672   -0.0636 C   0  0  0  0  0  0  0  0  0  0  0  0
    4.8817   -2.3790    0.0604 N   0  0  0  0  0  0  0  0  0  0  0  0
   -0.5577   -2.6288    0.0094 C   0  0  0  0  0  0  0  0  0  0  0  0
   -3.4810    1.2692   -0.8340 C   0  0  0  0  0  0  0  0  0  0  0  0
   -4.9940    1.3886   -0.8472 C   0  0  0  0  0  0  0  0  0  0  0  0
    3.8641   -3.0155   -0.5480 C   0  0  0  0  0  0  0  0  0  0  0  0
    4.6044   -1.1665    0.5783 C   0  0  0  0  0  0  0  0  0  0  0  0
    2.5761   -2.5025   -0.6468 C   0  0  0  0  0  0  0  0  0  0  0  0
    3.3448   -0.5836    0.5427 C   0  0  0  0  0  0  0  0  0  0  0  0
   -5.6674    2.0018    0.2203 C   0  0  0  0  0  0  0  0  0  0  0  0
   -5.7532    0.8820   -1.9146 C   0  0  0  0  0  0  0  0  0  0  0  0
   -1.9610   -3.2102    0.0693 C   0  0  0  0  0  0  0  0  0  0  0  0
   -7.1475    1.0093   -1.9226 C   0  0  0  0  0  0  0  0  0  0  0  0
   -7.0600    2.1252    0.2130 C   0  0  0  0  0  0  0  0  0  0  0  0
   -7.7983    1.6331   -0.8623 C   0  0  0  0  0  0  0  0  0  0  0  0
   -0.1145   -3.0505   -0.8949 H   0  0  0  0  0  0  0  0  0  0  0  0
    0.0031   -2.9888    0.8801 H   0  0  0  0  0  0  0  0  0  0  0  0
   -3.0557    2.1461   -0.3334 H   0  0  0  0  0  0  0  0  0  0  0  0
   -3.1055    1.2738   -1.8638 H   0  0  0  0  0  0  0  0  0  0  0  0
    4.1169   -3.9792   -0.9822 H   0  0  0  0  0  0  0  0  0  0  0  0
    5.4488   -0.6550    1.0321 H   0  0  0  0  0  0  0  0  0  0  0  0
    1.8575   -3.0755   -1.2132 H   0  0  0  0  0  0  0  0  0  0  0  0
    3.2042    0.4031    0.9757 H   0  0  0  0  0  0  0  0  0  0  0  0
   -5.1077    2.3922    1.0676 H   0  0  0  0  0  0  0  0  0  0  0  0
   -5.2672    0.3893   -2.7520 H   0  0  0  0  0  0  0  0  0  0  0  0
   -2.4841   -2.9177    0.9836 H   0  0  0  0  0  0  0  0  0  0  0  0
   -2.5496   -2.9211   -0.8069 H   0  0  0  0  0  0  0  0  0  0  0  0
   -1.9054   -4.3042    0.0615 H   0  0  0  0  0  0  0  0  0  0  0  0
   -7.7257    0.6217   -2.7568 H   0  0  0  0  0  0  0  0  0  0  0  0
   -7.5665    2.6102    1.0432 H   0  0  0  0  0  0  0  0  0  0  0  0
   -8.8831    1.7344   -0.8676 H   0  0  0  0  0  0  0  0  0  0  0  0
  2  1  1  0  0  0  0
  3  2  2  0  0  0  0
  3  5  1  0  0  0  0
  4  1  1  0  0  0  0
  5  4  2  0  0  0  0
  6  4  1  0  0  0  0
  7  2  1  0  0  0  0
  8 13  2  0  0  0  0
  8 12  1  0  0  0  0
  9  1  1  0  0  0  0
  9 22  1  0  0  0  0
  9 23  1  0  0  0  0
 10  6  1  0  0  0  0
 10 24  1  0  0  0  0
 10 25  1  0  0  0  0
 11 10  1  0  0  0  0
 12 14  2  0  0  0  0
 12 26  1  0  0  0  0
 13 15  1  0  0  0  0
 13 27  1  0  0  0  0
 14  7  1  0  0  0  0
 14 28  1  0  0  0  0
 15  7  2  0  0  0  0
 15 29  1  0  0  0  0
 16 11  2  0  0  0  0
 16 30  1  0  0  0  0
 17 11  1  0  0  0  0
 17 31  1  0  0  0  0
 18  9  1  0  0  0  0
 18 32  1  0  0  0  0
 18 33  1  0  0  0  0
 18 34  1  0  0  0  0
 19 17  2  0  0  0  0
 19 35  1  0  0  0  0
 20 16  1  0  0  0  0
 20 36  1  0  0  0  0
 21 19  1  0  0  0  0
 21 20  2  0  0  0  0
 21 37  1  0  0  0  0
M  END
>  <Mol_ID>
8749

>  <Formula>
C16H16N4S

>  <MolWeight>
296.39004

>  <Cat>
P2896

>  <Name>
WAY-607632

>  <Synonyms>
N/A

>  <Target>
Others

>  <Form>
free base

>  <CAS>
440638-20-0

>  <URL>
N/A

$$$$
