WAY-332074
 OpenBabel08302521443D

 49 51  0  0  0  0  0  0  0  0999 V2000
    1.3333   -0.8935   -1.0270 C   0  0  0  0  0  0  0  0  0  0  0  0
    1.7057    0.3584   -0.8240 N   0  0  0  0  0  0  0  0  0  0  0  0
    0.5198    1.0549   -0.6721 C   0  0  0  0  0  0  0  0  0  0  0  0
   -0.0254   -1.0790   -0.9593 O   0  0  0  0  0  0  0  0  0  0  0  0
    2.1422   -2.0845   -1.2830 C   0  0  0  0  0  0  0  0  0  0  0  0
   -0.5344    0.1667   -0.7267 C   0  0  0  0  0  0  0  0  0  0  0  0
   -0.4221    3.3765   -1.7803 S   0  0  3  0  0  0  0  0  0  0  0  0
    0.5065    2.5282   -0.4559 C   0  0  0  0  0  0  0  0  0  0  0  0
   -0.1125    5.0696   -1.2306 C   0  0  0  0  0  0  0  0  0  0  0  0
   -0.8273    5.4298    0.0511 C   0  0  0  0  0  0  0  0  0  0  0  0
    3.5431   -2.0042   -1.2303 C   0  0  0  0  0  0  0  0  0  0  0  0
   -0.0366    6.1076    0.9616 N   0  0  0  0  0  0  0  0  0  0  0  0
    0.3261    3.1976   -3.0709 O   0  0  0  0  0  0  0  0  0  0  0  0
   -2.0166    5.1875    0.2448 O   0  0  0  0  0  0  0  0  0  0  0  0
   -0.6032    6.8506    2.0695 C   0  0  0  0  0  0  0  0  0  0  0  0
   -0.1805    6.3179    3.4115 C   0  0  0  0  0  0  0  0  0  0  0  0
    0.5543    5.3797    5.9717 C   0  0  0  0  0  0  0  0  0  0  0  0
    1.5620   -3.3269   -1.5919 C   0  0  0  0  0  0  0  0  0  0  0  0
    1.0490    6.6803    3.9803 C   0  0  0  0  0  0  0  0  0  0  0  0
   -1.0312    5.4711    4.1335 C   0  0  0  0  0  0  0  0  0  0  0  0
    1.4109    6.2175    5.2498 C   0  0  0  0  0  0  0  0  0  0  0  0
   -0.6701    5.0114    5.4033 C   0  0  0  0  0  0  0  0  0  0  0  0
   -1.9985    0.2658   -0.6091 C   0  0  0  0  0  0  0  0  0  0  0  0
    4.3390   -3.1294   -1.4656 C   0  0  0  0  0  0  0  0  0  0  0  0
    0.9355    4.8675    7.3299 C   0  0  0  0  0  0  0  0  0  0  0  0
    2.3570   -4.4535   -1.8297 C   0  0  0  0  0  0  0  0  0  0  0  0
    3.7446   -4.3542   -1.7633 C   0  0  0  0  0  0  0  0  0  0  0  0
    0.0299    2.7576    0.5020 H   0  0  0  0  0  0  0  0  0  0  0  0
    1.5273    2.9227   -0.4416 H   0  0  0  0  0  0  0  0  0  0  0  0
    0.9656    5.2367   -1.1645 H   0  0  0  0  0  0  0  0  0  0  0  0
   -0.5047    5.7335   -2.0096 H   0  0  0  0  0  0  0  0  0  0  0  0
    4.0215   -1.0525   -1.0014 H   0  0  0  0  0  0  0  0  0  0  0  0
    0.9546    6.2163    0.7955 H   0  0  0  0  0  0  0  0  0  0  0  0
   -0.2481    7.8827    1.9627 H   0  0  0  0  0  0  0  0  0  0  0  0
   -1.6944    6.8901    1.9940 H   0  0  0  0  0  0  0  0  0  0  0  0
    0.4812   -3.4287   -1.6539 H   0  0  0  0  0  0  0  0  0  0  0  0
    1.7284    7.3434    3.4498 H   0  0  0  0  0  0  0  0  0  0  0  0
   -1.9928    5.1769    3.7162 H   0  0  0  0  0  0  0  0  0  0  0  0
    2.3649    6.5227    5.6747 H   0  0  0  0  0  0  0  0  0  0  0  0
   -1.3551    4.3665    5.9501 H   0  0  0  0  0  0  0  0  0  0  0  0
   -2.4874   -0.2009   -1.4694 H   0  0  0  0  0  0  0  0  0  0  0  0
   -2.3397   -0.2380    0.2999 H   0  0  0  0  0  0  0  0  0  0  0  0
   -2.3266    1.3081   -0.5579 H   0  0  0  0  0  0  0  0  0  0  0  0
    5.4217   -3.0477   -1.4150 H   0  0  0  0  0  0  0  0  0  0  0  0
    0.1848    5.1581    8.0720 H   0  0  0  0  0  0  0  0  0  0  0  0
    1.0174    3.7760    7.3093 H   0  0  0  0  0  0  0  0  0  0  0  0
    1.9003    5.2705    7.6557 H   0  0  0  0  0  0  0  0  0  0  0  0
    1.8908   -5.4069   -2.0658 H   0  0  0  0  0  0  0  0  0  0  0  0
    4.3640   -5.2297   -1.9457 H   0  0  0  0  0  0  0  0  0  0  0  0
  2  1  2  0  0  0  0
  3  2  1  0  0  0  0
  4  1  1  0  0  0  0
  5  1  1  0  0  0  0
  6  4  1  0  0  0  0
  6  3  2  0  0  0  0
  7  8  1  0  0  0  0
  8  3  1  0  0  0  0
  8 28  1  0  0  0  0
  8 29  1  0  0  0  0
  9  7  1  0  0  0  0
  9 30  1  0  0  0  0
  9 31  1  0  0  0  0
 10  9  1  0  0  0  0
 11  5  2  0  0  0  0
 11 32  1  0  0  0  0
 12 10  1  0  0  0  0
 12 33  1  0  0  0  0
 13  7  2  0  0  0  0
 14 10  2  0  0  0  0
 15 12  1  0  0  0  0
 15 34  1  0  0  0  0
 15 35  1  0  0  0  0
 16 15  1  0  0  0  0
 17 22  2  0  0  0  0
 18  5  1  0  0  0  0
 18 36  1  0  0  0  0
 19 16  1  0  0  0  0
 19 37  1  0  0  0  0
 20 16  2  0  0  0  0
 20 38  1  0  0  0  0
 21 19  2  0  0  0  0
 21 17  1  0  0  0  0
 21 39  1  0  0  0  0
 22 20  1  0  0  0  0
 22 40  1  0  0  0  0
 23  6  1  0  0  0  0
 23 41  1  0  0  0  0
 23 42  1  0  0  0  0
 23 43  1  0  0  0  0
 24 11  1  0  0  0  0
 24 44  1  0  0  0  0
 25 17  1  0  0  0  0
 25 45  1  0  0  0  0
 25 46  1  0  0  0  0
 25 47  1  0  0  0  0
 26 18  2  0  0  0  0
 26 48  1  0  0  0  0
 27 26  1  0  0  0  0
 27 24  2  0  0  0  0
 27 49  1  0  0  0  0
M  END
>  <Mol_ID>
9233

>  <Formula>
C21H21ClN2O3S

>  <MolWeight>
416.92104

>  <Cat>
P2715

>  <Name>
WAY-332074

>  <Synonyms>
N/A

>  <Target>
beta-catenin

>  <Form>
free base

>  <CAS>
1015865-20-9

>  <URL>
N/A

$$$$
