WAY-325659
 OpenBabel08302521433D

 35 37  0  0  0  0  0  0  0  0999 V2000
   -4.5604   -0.8857    2.2724 C   0  0  0  0  0  0  0  0  0  0  0  0
   -4.3382    0.2552    2.8644 N   0  0  0  0  0  0  0  0  0  0  0  0
   -5.2282   -2.1302    3.2273 S   0  0  0  0  0  0  0  0  0  0  0  0
   -4.3600   -1.2474    0.9770 N   0  0  0  0  0  0  0  0  0  0  0  0
   -4.8346    0.2023    4.1585 C   0  0  0  0  0  0  0  0  0  0  0  0
   -5.4550   -1.0004    4.5080 C   0  0  0  0  0  0  0  0  0  0  0  0
   -4.1896   -0.4354   -0.1013 C   0  0  0  0  0  0  0  0  0  0  0  0
   -4.3321    1.0849   -0.0312 C   0  0  0  0  0  0  0  0  0  0  0  0
   -3.2853    3.0672   -0.6469 N   0  0  0  0  0  0  0  0  0  0  0  0
   -3.9806   -0.9989   -1.1851 O   0  0  0  0  0  0  0  0  0  0  0  0
   -3.1418    1.6657   -0.5467 O   0  0  0  0  0  0  0  0  0  0  0  0
   -2.1917    3.5198   -1.1841 C   0  0  0  0  0  0  0  0  0  0  0  0
   -1.9075    4.9372   -1.4697 C   0  0  0  0  0  0  0  0  0  0  0  0
   -4.8074    1.2471    5.1042 C   0  0  0  0  0  0  0  0  0  0  0  0
   -6.1298   -1.1640    5.7280 C   0  0  0  0  0  0  0  0  0  0  0  0
   -2.8054    5.9638   -1.1698 C   0  0  0  0  0  0  0  0  0  0  0  0
   -0.6771    5.2308   -2.0658 C   0  0  0  0  0  0  0  0  0  0  0  0
   -5.4714    1.0930    6.3266 C   0  0  0  0  0  0  0  0  0  0  0  0
   -6.1467   -0.0881    6.6201 C   0  0  0  0  0  0  0  0  0  0  0  0
   -0.3390    6.5532   -2.3634 C   0  0  0  0  0  0  0  0  0  0  0  0
   -2.4615    7.2886   -1.4685 C   0  0  0  0  0  0  0  0  0  0  0  0
   -1.2290    7.5795   -2.0632 C   0  0  0  0  0  0  0  0  0  0  0  0
   -4.4056   -2.2327    0.7628 H   0  0  0  0  0  0  0  0  0  0  0  0
   -5.1806    1.3498   -0.6742 H   0  0  0  0  0  0  0  0  0  0  0  0
   -4.5344    1.4745    0.9625 H   0  0  0  0  0  0  0  0  0  0  0  0
   -1.3890    2.8077   -1.4560 H   0  0  0  0  0  0  0  0  0  0  0  0
   -4.2961    2.1748    4.8657 H   0  0  0  0  0  0  0  0  0  0  0  0
   -6.6449   -2.0904    5.9632 H   0  0  0  0  0  0  0  0  0  0  0  0
   -3.7637    5.7466   -0.7082 H   0  0  0  0  0  0  0  0  0  0  0  0
    0.0289    4.4400   -2.3028 H   0  0  0  0  0  0  0  0  0  0  0  0
   -5.4739    1.9111    7.0434 H   0  0  0  0  0  0  0  0  0  0  0  0
   -6.6917   -0.1790    7.5577 H   0  0  0  0  0  0  0  0  0  0  0  0
    0.6195    6.7764   -2.8258 H   0  0  0  0  0  0  0  0  0  0  0  0
   -3.1505    8.0954   -1.2401 H   0  0  0  0  0  0  0  0  0  0  0  0
   -0.9666    8.6090   -2.2976 H   0  0  0  0  0  0  0  0  0  0  0  0
  2  1  2  0  0  0  0
  3  1  1  0  0  0  0
  4  1  1  0  0  0  0
  4 23  1  0  0  0  0
  5  2  1  0  0  0  0
  5  6  2  0  0  0  0
  6  3  1  0  0  0  0
  7  4  1  0  0  0  0
  8  7  1  0  0  0  0
  8 24  1  0  0  0  0
  8 25  1  0  0  0  0
  9 11  1  0  0  0  0
 10  7  2  0  0  0  0
 11  8  1  0  0  0  0
 12  9  2  0  0  0  0
 12 26  1  0  0  0  0
 13 12  1  0  0  0  0
 14  5  1  0  0  0  0
 14 27  1  0  0  0  0
 15  6  1  0  0  0  0
 15 28  1  0  0  0  0
 16 13  2  0  0  0  0
 16 29  1  0  0  0  0
 17 13  1  0  0  0  0
 17 30  1  0  0  0  0
 18 14  2  0  0  0  0
 18 19  1  0  0  0  0
 18 31  1  0  0  0  0
 19 15  2  0  0  0  0
 19 32  1  0  0  0  0
 20 17  2  0  0  0  0
 20 33  1  0  0  0  0
 21 16  1  0  0  0  0
 21 22  2  0  0  0  0
 21 34  1  0  0  0  0
 22 20  1  0  0  0  0
 22 35  1  0  0  0  0
M  END
>  <Mol_ID>
8869

>  <Formula>
C16H13N3O2S

>  <MolWeight>
311.35832

>  <Cat>
P2417

>  <Name>
WAY-325659

>  <Synonyms>
N/A

>  <Target>
FabI,FabK

>  <Form>
free base

>  <CAS>
869355-03-3

>  <URL>
N/A

$$$$
