WAY-381665
 OpenBabel08302521393D

 48 50  0  0  0  0  0  0  0  0999 V2000
    0.8707    0.0209   -0.0785 S   0  0  0  0  0  0  0  0  0  0  0  0
   -3.3444   -3.5548   -5.0852 N   0  0  0  0  0  0  0  0  0  0  0  0
    0.5421   -1.5771   -0.8206 C   0  0  0  0  0  0  0  0  0  0  0  0
   -2.6373   -3.8074   -3.9245 C   0  0  0  0  0  0  0  0  0  0  0  0
   -3.3652   -2.4631   -5.9504 C   0  0  0  0  0  0  0  0  0  0  0  0
    2.2954    0.5180   -0.8004 N   0  0  0  0  0  0  0  0  0  0  0  0
   -0.4102   -1.6195   -1.8753 C   0  0  0  0  0  0  0  0  0  0  0  0
    1.1636   -0.1744    1.3274 O   0  0  0  0  0  0  0  0  0  0  0  0
   -0.1847    0.9256   -0.4724 O   0  0  0  0  0  0  0  0  0  0  0  0
   -1.7742   -2.8223   -3.4956 N   0  0  0  0  0  0  0  0  0  0  0  0
   -3.0182   -5.2774   -3.2138 S   0  0  0  0  0  0  0  0  0  0  0  0
   -4.3299   -2.5751   -7.0993 C   0  0  0  0  0  0  0  0  0  0  0  0
   -0.8237   -2.8378   -2.4346 C   0  0  0  0  0  0  0  0  0  0  0  0
    1.1322   -2.7606   -0.3468 C   0  0  0  0  0  0  0  0  0  0  0  0
    2.3512    0.7759   -2.1899 C   0  0  0  0  0  0  0  0  0  0  0  0
   -2.6386   -1.4870   -5.8301 O   0  0  0  0  0  0  0  0  0  0  0  0
    1.9918    2.0218   -2.7012 C   0  0  0  0  0  0  0  0  0  0  0  0
   -5.5270   -3.3068   -7.0083 C   0  0  0  0  0  0  0  0  0  0  0  0
   -4.0237   -1.9190   -8.3019 C   0  0  0  0  0  0  0  0  0  0  0  0
    0.7016   -3.9700   -0.9081 C   0  0  0  0  0  0  0  0  0  0  0  0
    2.0539    2.2479   -4.0798 C   0  0  0  0  0  0  0  0  0  0  0  0
   -0.2459   -4.0047   -1.9380 C   0  0  0  0  0  0  0  0  0  0  0  0
   -6.0508   -2.7656   -9.2998 C   0  0  0  0  0  0  0  0  0  0  0  0
   -4.8822   -2.0186   -9.4021 C   0  0  0  0  0  0  0  0  0  0  0  0
   -6.3823   -3.4068   -8.1116 C   0  0  0  0  0  0  0  0  0  0  0  0
   -6.8701   -2.8641  -10.3549 F   0  0  0  0  0  0  0  0  0  0  0  0
    2.8619   -0.0045   -4.4168 C   0  0  0  0  0  0  0  0  0  0  0  0
    2.8084   -0.2285   -3.0408 C   0  0  0  0  0  0  0  0  0  0  0  0
    2.1689   -2.8533    0.7378 C   0  0  0  0  0  0  0  0  0  0  0  0
    2.4792    1.2317   -4.9363 C   0  0  0  0  0  0  0  0  0  0  0  0
   -3.9260   -4.3438   -5.3307 H   0  0  0  0  0  0  0  0  0  0  0  0
    3.1010    0.6865   -0.2063 H   0  0  0  0  0  0  0  0  0  0  0  0
   -0.8518   -0.6901   -2.2314 H   0  0  0  0  0  0  0  0  0  0  0  0
   -1.8981   -1.9238   -3.9653 H   0  0  0  0  0  0  0  0  0  0  0  0
    1.6551    2.8167   -2.0424 H   0  0  0  0  0  0  0  0  0  0  0  0
   -5.8334   -3.7915   -6.0836 H   0  0  0  0  0  0  0  0  0  0  0  0
   -3.1104   -1.3333   -8.3901 H   0  0  0  0  0  0  0  0  0  0  0  0
    1.1093   -4.9150   -0.5515 H   0  0  0  0  0  0  0  0  0  0  0  0
    1.7644    3.2137   -4.4876 H   0  0  0  0  0  0  0  0  0  0  0  0
   -0.4711   -4.9791   -2.3541 H   0  0  0  0  0  0  0  0  0  0  0  0
   -4.6491   -1.5205  -10.3390 H   0  0  0  0  0  0  0  0  0  0  0  0
   -7.3080   -3.9729   -8.0535 H   0  0  0  0  0  0  0  0  0  0  0  0
    3.1990   -0.7953   -5.0820 H   0  0  0  0  0  0  0  0  0  0  0  0
    3.1111   -1.1930   -2.6429 H   0  0  0  0  0  0  0  0  0  0  0  0
    1.6992   -3.1010    1.6948 H   0  0  0  0  0  0  0  0  0  0  0  0
    2.8883   -3.6461    0.4955 H   0  0  0  0  0  0  0  0  0  0  0  0
    2.7649   -1.9454    0.8419 H   0  0  0  0  0  0  0  0  0  0  0  0
    2.5128    1.4022   -6.0099 H   0  0  0  0  0  0  0  0  0  0  0  0
  2  4  1  0  0  0  0
  2 31  1  0  0  0  0
  3  1  1  0  0  0  0
  4 10  1  0  0  0  0
  5  2  1  0  0  0  0
  6  1  1  0  0  0  0
  6 32  1  0  0  0  0
  7  3  2  0  0  0  0
  7 33  1  0  0  0  0
  8  1  2  0  0  0  0
  9  1  2  0  0  0  0
 10 13  1  0  0  0  0
 10 34  1  0  0  0  0
 11  4  2  0  0  0  0
 12  5  1  0  0  0  0
 13  7  1  0  0  0  0
 14  3  1  0  0  0  0
 15  6  1  0  0  0  0
 16  5  2  0  0  0  0
 17 15  2  0  0  0  0
 17 35  1  0  0  0  0
 18 12  2  0  0  0  0
 18 36  1  0  0  0  0
 19 12  1  0  0  0  0
 19 37  1  0  0  0  0
 20 14  2  0  0  0  0
 20 38  1  0  0  0  0
 21 17  1  0  0  0  0
 21 30  2  0  0  0  0
 21 39  1  0  0  0  0
 22 20  1  0  0  0  0
 22 13  2  0  0  0  0
 22 40  1  0  0  0  0
 23 24  1  0  0  0  0
 24 19  2  0  0  0  0
 24 41  1  0  0  0  0
 25 18  1  0  0  0  0
 25 23  2  0  0  0  0
 25 42  1  0  0  0  0
 26 23  1  0  0  0  0
 27 28  2  0  0  0  0
 27 43  1  0  0  0  0
 28 15  1  0  0  0  0
 28 44  1  0  0  0  0
 29 14  1  0  0  0  0
 29 45  1  0  0  0  0
 29 46  1  0  0  0  0
 29 47  1  0  0  0  0
 30 27  1  0  0  0  0
 30 48  1  0  0  0  0
M  END
>  <Mol_ID>
8097

>  <Formula>
C21H17ClFN3O3S2

>  <MolWeight>
477.9593832

>  <Cat>
P2803

>  <Name>
WAY-381665

>  <Synonyms>
N/A

>  <Target>
phosphatidylcholine transfer protein

>  <Form>
free base

>  <CAS>
379723-99-6

>  <URL>
N/A

$$$$
