WAY-332037
 OpenBabel08302521443D

 49 51  0  0  0  0  0  0  0  0999 V2000
   -1.3454    0.6480    0.5803 N   0  0  0  0  0  0  0  0  0  0  0  0
   -0.2227    1.1816   -0.0168 C   0  0  0  0  0  0  0  0  0  0  0  0
   -1.2116   -0.6557    0.4285 C   0  0  0  0  0  0  0  0  0  0  0  0
   -0.0573   -1.0226   -0.2121 O   0  0  0  0  0  0  0  0  0  0  0  0
    0.5708    0.1588   -0.4935 C   0  0  0  0  0  0  0  0  0  0  0  0
   -0.6956    3.3540   -1.6268 S   0  0  3  0  0  0  0  0  0  0  0  0
   -0.0360    2.6477   -0.0811 C   0  0  0  0  0  0  0  0  0  0  0  0
   -3.3232    3.3781   -2.4973 C   0  0  0  0  0  0  0  0  0  0  0  0
   -2.4366    2.8978   -1.3655 C   0  0  0  0  0  0  0  0  0  0  0  0
   -2.1304   -1.7224    0.8138 C   0  0  0  0  0  0  0  0  0  0  0  0
   -4.6361    3.6001   -2.1116 N   0  0  0  0  0  0  0  0  0  0  0  0
   -0.5848    4.8475   -1.4906 O   0  0  0  0  0  0  0  0  0  0  0  0
   -3.3654   -1.3929    1.3986 C   0  0  0  0  0  0  0  0  0  0  0  0
   -2.9464    3.4871   -3.6597 O   0  0  0  0  0  0  0  0  0  0  0  0
   -4.2799   -2.3871    1.7745 C   0  0  0  0  0  0  0  0  0  0  0  0
   -5.5843    4.2375   -3.0026 C   0  0  0  0  0  0  0  0  0  0  0  0
    1.8523    0.0742   -1.2146 C   0  0  0  0  0  0  0  0  0  0  0  0
   -1.8240   -3.0738    0.6081 C   0  0  0  0  0  0  0  0  0  0  0  0
   -2.7263   -4.0712    0.9823 C   0  0  0  0  0  0  0  0  0  0  0  0
   -3.9459   -3.7292    1.5654 C   0  0  0  0  0  0  0  0  0  0  0  0
   -5.5944   -2.0305    2.4026 C   0  0  0  0  0  0  0  0  0  0  0  0
   -5.6093    5.7526   -2.8157 C   0  0  0  0  0  0  0  0  0  0  0  0
   -7.0260    3.8427   -2.7077 C   0  0  0  0  0  0  0  0  0  0  0  0
   -6.9758    6.1932   -3.3344 C   0  0  0  0  0  0  0  0  0  0  0  0
   -7.8405    4.9339   -3.3902 C   0  0  0  0  0  0  0  0  0  0  0  0
   -0.5266    3.1431    0.7630 H   0  0  0  0  0  0  0  0  0  0  0  0
    1.0278    2.9018   -0.0402 H   0  0  0  0  0  0  0  0  0  0  0  0
   -2.5324    1.8106   -1.3368 H   0  0  0  0  0  0  0  0  0  0  0  0
   -2.7646    3.3260   -0.4136 H   0  0  0  0  0  0  0  0  0  0  0  0
   -4.8625    3.5763   -1.1258 H   0  0  0  0  0  0  0  0  0  0  0  0
   -3.6152   -0.3451    1.5595 H   0  0  0  0  0  0  0  0  0  0  0  0
   -5.3372    3.9969   -4.0442 H   0  0  0  0  0  0  0  0  0  0  0  0
    2.5647   -0.5433   -0.6584 H   0  0  0  0  0  0  0  0  0  0  0  0
    1.7049   -0.3742   -2.2017 H   0  0  0  0  0  0  0  0  0  0  0  0
    2.2968    1.0637   -1.3532 H   0  0  0  0  0  0  0  0  0  0  0  0
   -0.8794   -3.3641    0.1531 H   0  0  0  0  0  0  0  0  0  0  0  0
   -2.4759   -5.1169    0.8220 H   0  0  0  0  0  0  0  0  0  0  0  0
   -4.6385   -4.5174    1.8536 H   0  0  0  0  0  0  0  0  0  0  0  0
   -6.4190   -2.4506    1.8180 H   0  0  0  0  0  0  0  0  0  0  0  0
   -5.6413   -2.4214    3.4243 H   0  0  0  0  0  0  0  0  0  0  0  0
   -5.7376   -0.9457    2.4490 H   0  0  0  0  0  0  0  0  0  0  0  0
   -5.5213    6.0133   -1.7530 H   0  0  0  0  0  0  0  0  0  0  0  0
   -4.7863    6.2506   -3.3391 H   0  0  0  0  0  0  0  0  0  0  0  0
   -7.2716    2.8455   -3.0855 H   0  0  0  0  0  0  0  0  0  0  0  0
   -7.2235    3.8474   -1.6283 H   0  0  0  0  0  0  0  0  0  0  0  0
   -7.4142    6.9500   -2.6754 H   0  0  0  0  0  0  0  0  0  0  0  0
   -6.8908    6.6382   -4.3321 H   0  0  0  0  0  0  0  0  0  0  0  0
   -8.8118    5.0801   -2.9074 H   0  0  0  0  0  0  0  0  0  0  0  0
   -8.0294    4.6641   -4.4360 H   0  0  0  0  0  0  0  0  0  0  0  0
  2  1  1  0  0  0  0
  3  1  2  0  0  0  0
  4  3  1  0  0  0  0
  4  5  1  0  0  0  0
  5  2  2  0  0  0  0
  6  7  1  0  0  0  0
  7  2  1  0  0  0  0
  7 26  1  0  0  0  0
  7 27  1  0  0  0  0
  8  9  1  0  0  0  0
  9  6  1  0  0  0  0
  9 28  1  0  0  0  0
  9 29  1  0  0  0  0
 10  3  1  0  0  0  0
 11  8  1  0  0  0  0
 11 30  1  0  0  0  0
 12  6  2  0  0  0  0
 13 10  2  0  0  0  0
 13 31  1  0  0  0  0
 14  8  2  0  0  0  0
 15 13  1  0  0  0  0
 16 11  1  0  0  0  0
 16 32  1  0  0  0  0
 17  5  1  0  0  0  0
 17 33  1  0  0  0  0
 17 34  1  0  0  0  0
 17 35  1  0  0  0  0
 18 10  1  0  0  0  0
 18 36  1  0  0  0  0
 19 18  2  0  0  0  0
 19 37  1  0  0  0  0
 20 19  1  0  0  0  0
 20 15  2  0  0  0  0
 20 38  1  0  0  0  0
 21 15  1  0  0  0  0
 21 39  1  0  0  0  0
 21 40  1  0  0  0  0
 21 41  1  0  0  0  0
 22 16  1  0  0  0  0
 22 42  1  0  0  0  0
 22 43  1  0  0  0  0
 23 16  1  0  0  0  0
 23 44  1  0  0  0  0
 23 45  1  0  0  0  0
 24 22  1  0  0  0  0
 24 25  1  0  0  0  0
 24 46  1  0  0  0  0
 24 47  1  0  0  0  0
 25 23  1  0  0  0  0
 25 48  1  0  0  0  0
 25 49  1  0  0  0  0
M  END
>  <Mol_ID>
9207

>  <Formula>
C19H24N2O3S

>  <MolWeight>
360.47046

>  <Cat>
P2685

>  <Name>
WAY-332037

>  <Synonyms>
N/A

>  <Target>
beta-catenin

>  <Form>
free base

>  <CAS>
958954-60-4

>  <URL>
N/A

$$$$
