WAY-606758
 OpenBabel08302521433D

 35 36  0  0  0  0  0  0  0  0999 V2000
    1.3586   -0.2947   -0.1653 C   0  0  0  0  0  0  0  0  0  0  0  0
    2.0581   -2.5194    0.6451 C   0  0  0  0  0  0  0  0  0  0  0  0
    1.3303   -1.6767   -0.2494 N   0  0  0  0  0  0  0  0  0  0  0  0
    0.8733    1.8151   -1.5900 C   0  0  0  0  0  0  0  0  0  0  0  0
    2.5384    1.0466   -3.3844 C   0  0  0  0  0  0  0  0  0  0  0  0
    3.5183   -2.8238    0.4500 C   0  0  0  0  0  0  0  0  0  0  0  0
    2.4939   -3.8877    0.1912 C   0  0  0  0  0  0  0  0  0  0  0  0
    0.4419    0.3863   -1.1751 C   0  0  0  0  0  0  0  0  0  0  0  0
    2.0088    0.3174    0.6752 O   0  0  0  0  0  0  0  0  0  0  0  0
    2.3284    1.8572   -2.1301 C   0  0  0  0  0  0  0  0  0  0  0  0
    2.3403   -0.1479   -3.5235 O   0  0  0  0  0  0  0  0  0  0  0  0
    2.9885    1.7882   -4.4140 O   0  0  0  0  0  0  0  0  0  0  0  0
    0.6997    2.8268   -0.4348 C   0  0  0  0  0  0  0  0  0  0  0  0
   -0.1260    2.4088   -2.6091 C   0  0  0  0  0  0  0  0  0  0  0  0
    0.5523    4.1944   -1.1037 C   0  0  0  0  0  0  0  0  0  0  0  0
    0.0789    3.9196   -2.5298 C   0  0  0  0  0  0  0  0  0  0  0  0
    1.7237   -2.4240    1.6766 H   0  0  0  0  0  0  0  0  0  0  0  0
    0.7397   -2.1125   -0.9454 H   0  0  0  0  0  0  0  0  0  0  0  0
    4.0301   -2.3848   -0.3979 H   0  0  0  0  0  0  0  0  0  0  0  0
    4.1359   -2.9201    1.3360 H   0  0  0  0  0  0  0  0  0  0  0  0
    2.4150   -4.7039    0.9001 H   0  0  0  0  0  0  0  0  0  0  0  0
    2.3331   -4.1773   -0.8405 H   0  0  0  0  0  0  0  0  0  0  0  0
    0.3480   -0.2459   -2.0655 H   0  0  0  0  0  0  0  0  0  0  0  0
   -0.5565    0.4128   -0.7202 H   0  0  0  0  0  0  0  0  0  0  0  0
    2.6339    2.8893   -2.3409 H   0  0  0  0  0  0  0  0  0  0  0  0
    3.0466    1.4957   -1.3864 H   0  0  0  0  0  0  0  0  0  0  0  0
    3.0947    1.1475   -5.1481 H   0  0  0  0  0  0  0  0  0  0  0  0
   -0.2161    2.6104    0.1300 H   0  0  0  0  0  0  0  0  0  0  0  0
    1.5318    2.8228    0.2753 H   0  0  0  0  0  0  0  0  0  0  0  0
    0.0089    2.0339   -3.6280 H   0  0  0  0  0  0  0  0  0  0  0  0
   -1.1577    2.1768   -2.3128 H   0  0  0  0  0  0  0  0  0  0  0  0
   -0.1558    4.8260   -0.5565 H   0  0  0  0  0  0  0  0  0  0  0  0
    1.5124    4.7225   -1.1203 H   0  0  0  0  0  0  0  0  0  0  0  0
   -0.8385    4.4663   -2.7684 H   0  0  0  0  0  0  0  0  0  0  0  0
    0.8444    4.2409   -3.2456 H   0  0  0  0  0  0  0  0  0  0  0  0
  2  3  1  0  0  0  0
  2 17  1  0  0  0  0
  3  1  1  0  0  0  0
  3 18  1  0  0  0  0
  4  8  1  0  0  0  0
  5 10  1  0  0  0  0
  6  2  1  0  0  0  0
  6  7  1  0  0  0  0
  6 19  1  0  0  0  0
  6 20  1  0  0  0  0
  7  2  1  0  0  0  0
  7 21  1  0  0  0  0
  7 22  1  0  0  0  0
  8  1  1  0  0  0  0
  8 23  1  0  0  0  0
  8 24  1  0  0  0  0
  9  1  2  0  0  0  0
 10  4  1  0  0  0  0
 10 25  1  0  0  0  0
 10 26  1  0  0  0  0
 11  5  2  0  0  0  0
 12  5  1  0  0  0  0
 12 27  1  0  0  0  0
 13  4  1  0  0  0  0
 13 28  1  0  0  0  0
 13 29  1  0  0  0  0
 14  4  1  0  0  0  0
 14 30  1  0  0  0  0
 14 31  1  0  0  0  0
 15 13  1  0  0  0  0
 15 16  1  0  0  0  0
 15 32  1  0  0  0  0
 15 33  1  0  0  0  0
 16 14  1  0  0  0  0
 16 34  1  0  0  0  0
 16 35  1  0  0  0  0
M  END
>  <Mol_ID>
8728

>  <Formula>
C12H19NO3

>  <MolWeight>
225.28416

>  <Cat>
P2871

>  <Name>
WAY-606758

>  <Synonyms>
N/A

>  <Target>
Ccr5

>  <Form>
free base

>  <CAS>
380463-01-4

>  <URL>
N/A

$$$$
