WAY-299375
 OpenBabel08302521413D

 50 52  0  0  0  0  0  0  0  0999 V2000
    1.3572   -0.2186    0.1227 C   0  0  0  0  0  0  0  0  0  0  0  0
    0.4800   -1.3039    0.0480 C   0  0  0  0  0  0  0  0  0  0  0  0
    3.1180   -0.5090    0.2708 S   0  0  0  0  0  0  0  0  0  0  0  0
    0.8630    1.0889    0.1705 C   0  0  0  0  0  0  0  0  0  0  0  0
   -0.9053   -1.0851    0.0041 C   0  0  0  0  0  0  0  0  0  0  0  0
    3.6546   -0.5677   -1.3613 N   0  0  0  0  0  0  0  0  0  0  0  0
    3.6887    0.6645    0.8908 O   0  0  0  0  0  0  0  0  0  0  0  0
    3.2882   -1.8220    0.8560 O   0  0  0  0  0  0  0  0  0  0  0  0
   -0.5138    1.3084    0.0892 C   0  0  0  0  0  0  0  0  0  0  0  0
   -1.7929   -2.2870   -0.0374 C   0  0  0  0  0  0  0  0  0  0  0  0
   -1.3981    0.2264    0.0019 C   0  0  0  0  0  0  0  0  0  0  0  0
    3.2215   -1.7686   -2.1227 C   0  0  0  0  0  0  0  0  0  0  0  0
    3.5157    0.7095   -2.1026 C   0  0  0  0  0  0  0  0  0  0  0  0
   -3.0367   -2.1812    0.5543 N   0  0  0  0  0  0  0  0  0  0  0  0
   -1.3741   -3.3188   -0.5538 O   0  0  0  0  0  0  0  0  0  0  0  0
    3.9040   -1.8319   -3.4861 C   0  0  0  0  0  0  0  0  0  0  0  0
    4.2121    0.6420   -3.4556 C   0  0  0  0  0  0  0  0  0  0  0  0
   -3.9656   -3.3119    0.6055 C   0  0  0  0  0  0  0  0  0  0  0  0
    3.7010   -0.5398   -4.2667 C   0  0  0  0  0  0  0  0  0  0  0  0
   -4.8629   -3.3305   -0.6387 C   0  0  0  0  0  0  0  0  0  0  0  0
   -4.8064   -3.2694    1.8901 C   0  0  0  0  0  0  0  0  0  0  0  0
   -5.9030   -4.4490   -0.5769 C   0  0  0  0  0  0  0  0  0  0  0  0
   -5.8473   -4.3905    1.9360 C   0  0  0  0  0  0  0  0  0  0  0  0
   -6.7369   -4.3736    0.6978 C   0  0  0  0  0  0  0  0  0  0  0  0
    0.8662   -2.3225    0.0417 H   0  0  0  0  0  0  0  0  0  0  0  0
    1.5398    1.9358    0.2712 H   0  0  0  0  0  0  0  0  0  0  0  0
   -0.8986    2.3267    0.1031 H   0  0  0  0  0  0  0  0  0  0  0  0
   -2.4629    0.4276   -0.0775 H   0  0  0  0  0  0  0  0  0  0  0  0
    2.1352   -1.7495   -2.2626 H   0  0  0  0  0  0  0  0  0  0  0  0
    3.4856   -2.6762   -1.5697 H   0  0  0  0  0  0  0  0  0  0  0  0
    3.9641    1.5266   -1.5263 H   0  0  0  0  0  0  0  0  0  0  0  0
    2.4557    0.9328   -2.2561 H   0  0  0  0  0  0  0  0  0  0  0  0
   -3.3393   -1.2973    0.9418 H   0  0  0  0  0  0  0  0  0  0  0  0
    3.4994   -2.6743   -4.0577 H   0  0  0  0  0  0  0  0  0  0  0  0
    4.9774   -2.0153   -3.3573 H   0  0  0  0  0  0  0  0  0  0  0  0
    5.2972    0.5554   -3.3185 H   0  0  0  0  0  0  0  0  0  0  0  0
    4.0292    1.5727   -4.0044 H   0  0  0  0  0  0  0  0  0  0  0  0
   -3.3714   -4.2348    0.6145 H   0  0  0  0  0  0  0  0  0  0  0  0
    4.2254   -0.5927   -5.2272 H   0  0  0  0  0  0  0  0  0  0  0  0
    2.6347   -0.4036   -4.4867 H   0  0  0  0  0  0  0  0  0  0  0  0
   -5.3766   -2.3649   -0.7386 H   0  0  0  0  0  0  0  0  0  0  0  0
   -4.2526   -3.4513   -1.5416 H   0  0  0  0  0  0  0  0  0  0  0  0
   -4.1534   -3.3472    2.7676 H   0  0  0  0  0  0  0  0  0  0  0  0
   -5.3201   -2.3031    1.9692 H   0  0  0  0  0  0  0  0  0  0  0  0
   -6.5614   -4.3896   -1.4510 H   0  0  0  0  0  0  0  0  0  0  0  0
   -5.3975   -5.4217   -0.6234 H   0  0  0  0  0  0  0  0  0  0  0  0
   -6.4660   -4.2852    2.8345 H   0  0  0  0  0  0  0  0  0  0  0  0
   -5.3423   -5.3616    2.0101 H   0  0  0  0  0  0  0  0  0  0  0  0
   -7.3373   -3.4554    0.6907 H   0  0  0  0  0  0  0  0  0  0  0  0
   -7.4395   -5.2135    0.7328 H   0  0  0  0  0  0  0  0  0  0  0  0
  1  2  2  0  0  0  0
  1  3  1  0  0  0  0
  1  4  1  0  0  0  0
  2  5  1  0  0  0  0
  2 25  1  0  0  0  0
  3  6  1  0  0  0  0
  3  7  2  0  0  0  0
  3  8  2  0  0  0  0
  4  9  2  0  0  0  0
  4 26  1  0  0  0  0
  5 10  1  0  0  0  0
  5 11  2  0  0  0  0
  6 12  1  0  0  0  0
  6 13  1  0  0  0  0
  9 11  1  0  0  0  0
  9 27  1  0  0  0  0
 10 14  1  0  0  0  0
 10 15  2  0  0  0  0
 11 28  1  0  0  0  0
 12 16  1  0  0  0  0
 12 29  1  0  0  0  0
 12 30  1  0  0  0  0
 13 17  1  0  0  0  0
 13 31  1  0  0  0  0
 13 32  1  0  0  0  0
 14 18  1  0  0  0  0
 14 33  1  0  0  0  0
 16 19  1  0  0  0  0
 16 34  1  0  0  0  0
 16 35  1  0  0  0  0
 17 19  1  0  0  0  0
 17 36  1  0  0  0  0
 17 37  1  0  0  0  0
 18 20  1  0  0  0  0
 18 21  1  0  0  0  0
 18 38  1  0  0  0  0
 19 39  1  0  0  0  0
 19 40  1  0  0  0  0
 20 22  1  0  0  0  0
 20 41  1  0  0  0  0
 20 42  1  0  0  0  0
 21 23  1  0  0  0  0
 21 43  1  0  0  0  0
 21 44  1  0  0  0  0
 22 24  1  0  0  0  0
 22 45  1  0  0  0  0
 22 46  1  0  0  0  0
 23 24  1  0  0  0  0
 23 47  1  0  0  0  0
 23 48  1  0  0  0  0
 24 49  1  0  0  0  0
 24 50  1  0  0  0  0
M  END
>  <Mol_ID>
8360

>  <Formula>
C18H26N2O3S

>  <MolWeight>
350.47564

>  <Cat>
P2111

>  <Name>
WAY-299375

>  <Synonyms>
N/A

>  <Target>
epoxide hydrolase

>  <Form>
free base

>  <CAS>
1005086-69-0

>  <URL>
N/A

$$$$
