WAY-661823
 OpenBabel08302521443D

 28 30  0  0  0  0  0  0  0  0999 V2000
    2.0336    0.8393   -0.0885 C   0  0  0  0  0  0  0  0  0  0  0  0
    0.9018    1.6182   -0.1713 O   0  0  0  0  0  0  0  0  0  0  0  0
    1.6804   -0.5026   -0.0194 C   0  0  0  0  0  0  0  0  0  0  0  0
    3.3413    1.4723   -0.0393 C   0  0  0  0  0  0  0  0  0  0  0  0
   -0.1699    0.7762   -0.1081 C   0  0  0  0  0  0  0  0  0  0  0  0
    3.3549    2.7606   -0.5305 N   0  0  0  0  0  0  0  0  0  0  0  0
    0.2562   -0.5427   -0.0349 C   0  0  0  0  0  0  0  0  0  0  0  0
    4.5040    3.5005   -0.5625 C   0  0  0  0  0  0  0  0  0  0  0  0
    5.7225    3.1437   -0.2466 N   0  0  0  0  0  0  0  0  0  0  0  0
    4.3033    5.1189   -1.0712 S   0  0  0  0  0  0  0  0  0  0  0  0
   -1.5102    1.1576   -0.1097 C   0  0  0  0  0  0  0  0  0  0  0  0
    4.3190    0.8798    0.4017 O   0  0  0  0  0  0  0  0  0  0  0  0
    6.5683    4.2260   -0.3582 C   0  0  0  0  0  0  0  0  0  0  0  0
    5.9728    5.3984   -0.7727 C   0  0  0  0  0  0  0  0  0  0  0  0
    2.5841   -1.6789    0.0613 C   0  0  0  0  0  0  0  0  0  0  0  0
   -0.7111   -1.5642    0.0164 C   0  0  0  0  0  0  0  0  0  0  0  0
   -2.0657   -1.2120    0.0106 C   0  0  0  0  0  0  0  0  0  0  0  0
   -2.4574    0.1271   -0.0458 C   0  0  0  0  0  0  0  0  0  0  0  0
    2.4954    3.1849   -0.8433 H   0  0  0  0  0  0  0  0  0  0  0  0
   -1.8042    2.1997   -0.1483 H   0  0  0  0  0  0  0  0  0  0  0  0
    7.6169    4.1036   -0.1128 H   0  0  0  0  0  0  0  0  0  0  0  0
    6.4266    6.3691   -0.9108 H   0  0  0  0  0  0  0  0  0  0  0  0
    2.3929   -2.2448    0.9782 H   0  0  0  0  0  0  0  0  0  0  0  0
    2.4127   -2.3417   -0.7948 H   0  0  0  0  0  0  0  0  0  0  0  0
    3.6418   -1.4065    0.0515 H   0  0  0  0  0  0  0  0  0  0  0  0
   -0.4150   -2.6081    0.0702 H   0  0  0  0  0  0  0  0  0  0  0  0
   -2.8207   -1.9955    0.0561 H   0  0  0  0  0  0  0  0  0  0  0  0
   -3.5174    0.3726   -0.0362 H   0  0  0  0  0  0  0  0  0  0  0  0
  2  1  1  0  0  0  0
  3  1  2  0  0  0  0
  4  1  1  0  0  0  0
  5  2  1  0  0  0  0
  6  4  1  0  0  0  0
  6 19  1  0  0  0  0
  7  3  1  0  0  0  0
  7  5  2  0  0  0  0
  8  6  1  0  0  0  0
  9  8  2  0  0  0  0
 10  8  1  0  0  0  0
 11  5  1  0  0  0  0
 11 20  1  0  0  0  0
 12  4  2  0  0  0  0
 13  9  1  0  0  0  0
 13 21  1  0  0  0  0
 14 10  1  0  0  0  0
 14 13  2  0  0  0  0
 14 22  1  0  0  0  0
 15  3  1  0  0  0  0
 15 23  1  0  0  0  0
 15 24  1  0  0  0  0
 15 25  1  0  0  0  0
 16  7  1  0  0  0  0
 16 26  1  0  0  0  0
 17 16  2  0  0  0  0
 17 18  1  0  0  0  0
 17 27  1  0  0  0  0
 18 11  2  0  0  0  0
 18 28  1  0  0  0  0
M  END
>  <Mol_ID>
9133

>  <Formula>
C13H9ClN2O2S

>  <MolWeight>
292.74076

>  <Cat>
P3214

>  <Name>
WAY-661823

>  <Synonyms>
N/A

>  <Target>
Others

>  <Form>
free base

>  <CAS>
897765-06-9

>  <URL>
N/A

$$$$
