WAY-332062
 OpenBabel08302521443D

 49 51  0  0  0  0  0  0  0  0999 V2000
   -1.9363    2.9538    1.4792 N   0  0  0  0  0  0  0  0  0  0  0  0
   -0.5857    3.1318    1.2693 C   0  0  0  0  0  0  0  0  0  0  0  0
   -2.1651    3.5076    2.6555 C   0  0  0  0  0  0  0  0  0  0  0  0
   -1.0487    4.0539    3.2342 O   0  0  0  0  0  0  0  0  0  0  0  0
   -0.0418    3.7966    2.3494 C   0  0  0  0  0  0  0  0  0  0  0  0
   -0.5922    3.3540   -1.4872 S   0  0  3  0  0  0  0  0  0  0  0  0
    0.0826    2.6366    0.0435 C   0  0  0  0  0  0  0  0  0  0  0  0
   -0.7295    6.0416   -2.2040 C   0  0  0  0  0  0  0  0  0  0  0  0
   -0.2153    5.0984   -1.1294 C   0  0  0  0  0  0  0  0  0  0  0  0
   -3.4095    3.5990    3.4133 C   0  0  0  0  0  0  0  0  0  0  0  0
   -0.4514    7.3747   -1.9386 N   0  0  0  0  0  0  0  0  0  0  0  0
    0.3278    2.9089   -2.5908 O   0  0  0  0  0  0  0  0  0  0  0  0
   -1.3640    5.6846   -3.1923 O   0  0  0  0  0  0  0  0  0  0  0  0
   -4.5671    2.9700    2.9307 C   0  0  0  0  0  0  0  0  0  0  0  0
   -3.4841    4.2940    4.6303 C   0  0  0  0  0  0  0  0  0  0  0  0
   -5.8176    3.7098    4.8620 C   0  0  0  0  0  0  0  0  0  0  0  0
   -4.6803    4.3485    5.3504 C   0  0  0  0  0  0  0  0  0  0  0  0
   -5.7633    3.0228    3.6512 C   0  0  0  0  0  0  0  0  0  0  0  0
   -0.8659    8.4874   -2.7949 C   0  0  0  0  0  0  0  0  0  0  0  0
    1.3038    4.2601    2.7280 C   0  0  0  0  0  0  0  0  0  0  0  0
   -2.3919    8.5802   -2.9535 C   0  0  0  0  0  0  0  0  0  0  0  0
   -0.1491    8.4896   -4.1524 C   0  0  0  0  0  0  0  0  0  0  0  0
   -2.8085    9.7500   -3.8444 C   0  0  0  0  0  0  0  0  0  0  0  0
   -0.5725    9.6883   -5.0011 C   0  0  0  0  0  0  0  0  0  0  0  0
   -2.0858    9.7262   -5.1881 C   0  0  0  0  0  0  0  0  0  0  0  0
    1.1587    2.8363    0.0626 H   0  0  0  0  0  0  0  0  0  0  0  0
   -0.0486    1.5519   -0.0294 H   0  0  0  0  0  0  0  0  0  0  0  0
   -0.6987    5.3802   -0.1901 H   0  0  0  0  0  0  0  0  0  0  0  0
    0.8692    5.2064   -1.0342 H   0  0  0  0  0  0  0  0  0  0  0  0
    0.0837    7.6062   -1.1123 H   0  0  0  0  0  0  0  0  0  0  0  0
   -4.5388    2.4260    1.9873 H   0  0  0  0  0  0  0  0  0  0  0  0
   -2.6077    4.7976    5.0330 H   0  0  0  0  0  0  0  0  0  0  0  0
   -6.7467    3.7463    5.4253 H   0  0  0  0  0  0  0  0  0  0  0  0
   -4.7212    4.8863    6.2943 H   0  0  0  0  0  0  0  0  0  0  0  0
   -6.6496    2.5233    3.2676 H   0  0  0  0  0  0  0  0  0  0  0  0
   -0.5394    9.3854   -2.2527 H   0  0  0  0  0  0  0  0  0  0  0  0
    1.3130    5.3480    2.8450 H   0  0  0  0  0  0  0  0  0  0  0  0
    1.6117    3.8076    3.6755 H   0  0  0  0  0  0  0  0  0  0  0  0
    2.0459    3.9954    1.9693 H   0  0  0  0  0  0  0  0  0  0  0  0
   -2.7940    7.6587   -3.3883 H   0  0  0  0  0  0  0  0  0  0  0  0
   -2.8611    8.6863   -1.9680 H   0  0  0  0  0  0  0  0  0  0  0  0
    0.9370    8.5147   -4.0027 H   0  0  0  0  0  0  0  0  0  0  0  0
   -0.3660    7.5677   -4.7049 H   0  0  0  0  0  0  0  0  0  0  0  0
   -3.8915    9.7170   -4.0095 H   0  0  0  0  0  0  0  0  0  0  0  0
   -2.5926   10.6950   -3.3313 H   0  0  0  0  0  0  0  0  0  0  0  0
   -0.0798    9.6447   -5.9789 H   0  0  0  0  0  0  0  0  0  0  0  0
   -0.2413   10.6167   -4.5184 H   0  0  0  0  0  0  0  0  0  0  0  0
   -2.4055    8.8477   -5.7626 H   0  0  0  0  0  0  0  0  0  0  0  0
   -2.3659   10.6093   -5.7735 H   0  0  0  0  0  0  0  0  0  0  0  0
  2  1  1  0  0  0  0
  3  1  2  0  0  0  0
  4  3  1  0  0  0  0
  5  2  2  0  0  0  0
  5  4  1  0  0  0  0
  6  7  1  0  0  0  0
  7  2  1  0  0  0  0
  7 26  1  0  0  0  0
  7 27  1  0  0  0  0
  8  9  1  0  0  0  0
  9  6  1  0  0  0  0
  9 28  1  0  0  0  0
  9 29  1  0  0  0  0
 10  3  1  0  0  0  0
 11  8  1  0  0  0  0
 11 30  1  0  0  0  0
 12  6  2  0  0  0  0
 13  8  2  0  0  0  0
 14 10  2  0  0  0  0
 14 31  1  0  0  0  0
 15 10  1  0  0  0  0
 15 32  1  0  0  0  0
 16 17  1  0  0  0  0
 16 18  2  0  0  0  0
 16 33  1  0  0  0  0
 17 15  2  0  0  0  0
 17 34  1  0  0  0  0
 18 14  1  0  0  0  0
 18 35  1  0  0  0  0
 19 11  1  0  0  0  0
 19 36  1  0  0  0  0
 20  5  1  0  0  0  0
 20 37  1  0  0  0  0
 20 38  1  0  0  0  0
 20 39  1  0  0  0  0
 21 19  1  0  0  0  0
 21 40  1  0  0  0  0
 21 41  1  0  0  0  0
 22 19  1  0  0  0  0
 22 42  1  0  0  0  0
 22 43  1  0  0  0  0
 23 21  1  0  0  0  0
 23 25  1  0  0  0  0
 23 44  1  0  0  0  0
 23 45  1  0  0  0  0
 24 22  1  0  0  0  0
 24 46  1  0  0  0  0
 24 47  1  0  0  0  0
 25 24  1  0  0  0  0
 25 48  1  0  0  0  0
 25 49  1  0  0  0  0
M  END
>  <Mol_ID>
9202

>  <Formula>
C19H23ClN2O3S

>  <MolWeight>
394.91552

>  <Cat>
P2705

>  <Name>
WAY-332062

>  <Synonyms>
N/A

>  <Target>
beta-catenin

>  <Form>
free base

>  <CAS>
1015859-04-7

>  <URL>
N/A

$$$$
