WAY-327497
 OpenBabel08302521443D

 55 57  0  0  0  0  0  0  0  0999 V2000
    1.0809    1.3331   -0.1946 C   0  0  0  0  0  0  0  0  0  0  0  0
   -0.1534    0.5039   -0.1795 C   0  0  0  0  0  0  0  0  0  0  0  0
    1.1047    2.8499   -0.1969 C   0  0  0  0  0  0  0  0  0  0  0  0
   -0.0517   -0.8793    0.0294 C   0  0  0  0  0  0  0  0  0  0  0  0
    2.0061    3.5374    0.6297 N   0  0  0  0  0  0  0  0  0  0  0  0
    2.2518    0.6758   -0.2613 C   0  0  0  0  0  0  0  0  0  0  0  0
    1.2819   -1.5202    0.1311 C   0  0  0  0  0  0  0  0  0  0  0  0
    2.3830   -0.6836   -0.0506 N   0  0  0  0  0  0  0  0  0  0  0  0
   -1.4414    1.0189   -0.3801 C   0  0  0  0  0  0  0  0  0  0  0  0
   -1.1939   -1.7083    0.1147 C   0  0  0  0  0  0  0  0  0  0  0  0
   -2.4723   -1.1717   -0.0197 C   0  0  0  0  0  0  0  0  0  0  0  0
   -2.5885    0.2032   -0.2805 C   0  0  0  0  0  0  0  0  0  0  0  0
    2.0670    5.0077    0.5824 C   0  0  0  0  0  0  0  0  0  0  0  0
    2.9544    2.9600    1.5895 C   0  0  0  0  0  0  0  0  0  0  0  0
    1.3697   -2.7239    0.3574 O   0  0  0  0  0  0  0  0  0  0  0  0
    0.3092    3.4548   -0.9146 O   0  0  0  0  0  0  0  0  0  0  0  0
    3.4995    5.5154    0.2904 C   0  0  3  0  0  0  0  0  0  0  0  0
    4.3752    3.2918    1.1076 C   0  0  3  0  0  0  0  0  0  0  0  0
    4.5581    4.8144    1.1665 C   0  0  0  0  0  0  0  0  0  0  0  0
    3.7229   -1.2473    0.1153 C   0  0  0  0  0  0  0  0  0  0  0  0
   -3.6230   -1.9110    0.0458 O   0  0  0  0  0  0  0  0  0  0  0  0
   -3.7595    0.8859   -0.5091 O   0  0  0  0  0  0  0  0  0  0  0  0
    3.6045    7.0313    0.4587 C   0  0  0  0  0  0  0  0  0  0  0  0
    5.4392    2.5499    1.9054 C   0  0  0  0  0  0  0  0  0  0  0  0
   -3.5352   -3.2785    0.4261 C   0  0  0  0  0  0  0  0  0  0  0  0
   -4.8808    0.4818    0.2685 C   0  0  0  0  0  0  0  0  0  0  0  0
    4.3625   -1.6115   -1.2108 C   0  0  0  0  0  0  0  0  0  0  0  0
    3.1894    1.2090   -0.3981 H   0  0  0  0  0  0  0  0  0  0  0  0
   -1.5916    2.0663   -0.6303 H   0  0  0  0  0  0  0  0  0  0  0  0
   -1.0419   -2.7720    0.2732 H   0  0  0  0  0  0  0  0  0  0  0  0
    1.3747    5.4106   -0.1632 H   0  0  0  0  0  0  0  0  0  0  0  0
    1.7310    5.3691    1.5621 H   0  0  0  0  0  0  0  0  0  0  0  0
    2.7589    3.4201    2.5655 H   0  0  0  0  0  0  0  0  0  0  0  0
    2.8072    1.8929    1.7388 H   0  0  0  0  0  0  0  0  0  0  0  0
    3.7301    5.2757   -0.7566 H   0  0  0  0  0  0  0  0  0  0  0  0
    4.4870    2.9876    0.0592 H   0  0  0  0  0  0  0  0  0  0  0  0
    5.5635    5.0869    0.8207 H   0  0  0  0  0  0  0  0  0  0  0  0
    4.4767    5.1600    2.2061 H   0  0  0  0  0  0  0  0  0  0  0  0
    4.3475   -0.5237    0.6532 H   0  0  0  0  0  0  0  0  0  0  0  0
    3.6708   -2.1390    0.7505 H   0  0  0  0  0  0  0  0  0  0  0  0
    3.3701    7.3389    1.4840 H   0  0  0  0  0  0  0  0  0  0  0  0
    4.6204    7.3769    0.2317 H   0  0  0  0  0  0  0  0  0  0  0  0
    2.9186    7.5499   -0.2177 H   0  0  0  0  0  0  0  0  0  0  0  0
    5.4132    2.8198    2.9641 H   0  0  0  0  0  0  0  0  0  0  0  0
    5.2917    1.4680    1.8220 H   0  0  0  0  0  0  0  0  0  0  0  0
    6.4376    2.7757    1.5153 H   0  0  0  0  0  0  0  0  0  0  0  0
   -3.1038   -3.8745   -0.3833 H   0  0  0  0  0  0  0  0  0  0  0  0
   -2.9782   -3.4108    1.3597 H   0  0  0  0  0  0  0  0  0  0  0  0
   -4.5547   -3.6391    0.6019 H   0  0  0  0  0  0  0  0  0  0  0  0
   -5.4587   -0.2799   -0.2642 H   0  0  0  0  0  0  0  0  0  0  0  0
   -4.5988    0.1397    1.2703 H   0  0  0  0  0  0  0  0  0  0  0  0
   -5.5275    1.3557    0.3939 H   0  0  0  0  0  0  0  0  0  0  0  0
    3.7520   -2.3399   -1.7531 H   0  0  0  0  0  0  0  0  0  0  0  0
    4.4800   -0.7276   -1.8455 H   0  0  0  0  0  0  0  0  0  0  0  0
    5.3527   -2.0461   -1.0431 H   0  0  0  0  0  0  0  0  0  0  0  0
  2  1  1  0  0  0  0
  3  1  1  0  0  0  0
  4  2  2  0  0  0  0
  5  3  1  0  0  0  0
  6  1  2  0  0  0  0
  6 28  1  0  0  0  0
  7  8  1  0  0  0  0
  7  4  1  0  0  0  0
  8  6  1  0  0  0  0
  9  2  1  0  0  0  0
  9 29  1  0  0  0  0
 10  4  1  0  0  0  0
 10 30  1  0  0  0  0
 11 12  1  0  0  0  0
 11 10  2  0  0  0  0
 12  9  2  0  0  0  0
 13  5  1  0  0  0  0
 13 31  1  0  0  0  0
 13 32  1  0  0  0  0
 14  5  1  0  0  0  0
 14 33  1  0  0  0  0
 14 34  1  0  0  0  0
 15  7  2  0  0  0  0
 16  3  2  0  0  0  0
 17 13  1  0  0  0  0
 17 19  1  0  0  0  0
 17 35  1  0  0  0  0
 18 14  1  0  0  0  0
 18 36  1  0  0  0  0
 19 18  1  0  0  0  0
 19 37  1  0  0  0  0
 19 38  1  0  0  0  0
 20  8  1  0  0  0  0
 20 39  1  0  0  0  0
 20 40  1  0  0  0  0
 21 11  1  0  0  0  0
 22 12  1  0  0  0  0
 23 17  1  0  0  0  0
 23 41  1  0  0  0  0
 23 42  1  0  0  0  0
 23 43  1  0  0  0  0
 24 18  1  0  0  0  0
 24 44  1  0  0  0  0
 24 45  1  0  0  0  0
 24 46  1  0  0  0  0
 25 21  1  0  0  0  0
 25 47  1  0  0  0  0
 25 48  1  0  0  0  0
 25 49  1  0  0  0  0
 26 22  1  0  0  0  0
 26 50  1  0  0  0  0
 26 51  1  0  0  0  0
 26 52  1  0  0  0  0
 27 20  1  0  0  0  0
 27 53  1  0  0  0  0
 27 54  1  0  0  0  0
 27 55  1  0  0  0  0
M  END
>  <Mol_ID>
8974

>  <Formula>
C21H28N2O4

>  <MolWeight>
372.45802

>  <Cat>
P2537

>  <Name>
WAY-327497

>  <Synonyms>
N/A

>  <Target>
phosphodiesterase type 10A

>  <Form>
free base

>  <CAS>
892265-59-7

>  <URL>
N/A

$$$$
