WAY-606801
 OpenBabel08302521433D

 39 40  0  0  0  0  0  0  0  0999 V2000
    2.9044   -0.5063   -2.0504 S   0  0  0  0  0  0  0  0  0  0  0  0
    2.1724   -2.0258   -2.0563 N   0  0  0  0  0  0  0  0  0  0  0  0
    3.4718   -0.3874   -0.3685 C   0  0  0  0  0  0  0  0  0  0  0  0
    1.7077   -6.6161   -3.2916 C   0  0  0  0  0  0  0  0  0  0  0  0
    1.8783    0.4889   -2.2611 O   0  0  0  0  0  0  0  0  0  0  0  0
    4.0817   -0.5961   -2.8820 O   0  0  0  0  0  0  0  0  0  0  0  0
    0.4203   -6.4112   -2.5133 C   0  0  3  0  0  0  0  0  0  0  0  0
    2.8469   -6.5562   -2.8595 O   0  0  0  0  0  0  0  0  0  0  0  0
    4.4281   -1.3050    0.0870 C   0  0  0  0  0  0  0  0  0  0  0  0
    2.9726    0.6120    0.4736 C   0  0  0  0  0  0  0  0  0  0  0  0
    0.6921   -6.0796   -1.0402 C   0  0  0  0  0  0  0  0  0  0  0  0
   -0.4795   -5.3510   -3.1560 C   0  0  0  0  0  0  0  0  0  0  0  0
    0.9050   -2.1799   -1.3263 C   0  0  0  0  0  0  0  0  0  0  0  0
    1.4890   -6.9493   -4.5789 O   0  0  0  0  0  0  0  0  0  0  0  0
    4.3676   -0.2431    2.2473 C   0  0  0  0  0  0  0  0  0  0  0  0
    4.8699   -1.2352    1.4059 C   0  0  0  0  0  0  0  0  0  0  0  0
    3.4297    0.6805    1.7907 C   0  0  0  0  0  0  0  0  0  0  0  0
    4.7965   -0.1751    3.5110 F   0  0  0  0  0  0  0  0  0  0  0  0
    0.0500   -3.9295   -2.9707 C   0  0  0  0  0  0  0  0  0  0  0  0
    1.2189   -4.6598   -0.8305 C   0  0  0  0  0  0  0  0  0  0  0  0
    0.3310   -3.5986   -1.4972 C   0  0  3  0  0  0  0  0  0  0  0  0
    2.8657   -2.7660   -1.9434 H   0  0  0  0  0  0  0  0  0  0  0  0
   -0.0964   -7.3799   -2.5419 H   0  0  0  0  0  0  0  0  0  0  0  0
    4.8323   -2.0641   -0.5779 H   0  0  0  0  0  0  0  0  0  0  0  0
    2.2415    1.3348    0.1153 H   0  0  0  0  0  0  0  0  0  0  0  0
   -0.2398   -6.1962   -0.4735 H   0  0  0  0  0  0  0  0  0  0  0  0
    1.4083   -6.7923   -0.6130 H   0  0  0  0  0  0  0  0  0  0  0  0
   -0.6088   -5.5447   -4.2273 H   0  0  0  0  0  0  0  0  0  0  0  0
   -1.4788   -5.4177   -2.7079 H   0  0  0  0  0  0  0  0  0  0  0  0
    1.0621   -1.9794   -0.2611 H   0  0  0  0  0  0  0  0  0  0  0  0
    0.1798   -1.4557   -1.7121 H   0  0  0  0  0  0  0  0  0  0  0  0
    2.3865   -7.0759   -4.9537 H   0  0  0  0  0  0  0  0  0  0  0  0
    5.6053   -1.9391    1.7847 H   0  0  0  0  0  0  0  0  0  0  0  0
    3.0614    1.4461    2.4663 H   0  0  0  0  0  0  0  0  0  0  0  0
   -0.6894   -3.2225   -3.3676 H   0  0  0  0  0  0  0  0  0  0  0  0
    0.9564   -3.8061   -3.5746 H   0  0  0  0  0  0  0  0  0  0  0  0
    1.2821   -4.4588    0.2461 H   0  0  0  0  0  0  0  0  0  0  0  0
    2.2429   -4.6045   -1.2127 H   0  0  0  0  0  0  0  0  0  0  0  0
   -0.6343   -3.6110   -0.9711 H   0  0  0  0  0  0  0  0  0  0  0  0
  2  1  1  0  0  0  0
  2 22  1  0  0  0  0
  3  1  1  0  0  0  0
  4  7  1  0  0  0  0
  5  1  2  0  0  0  0
  6  1  2  0  0  0  0
  7 11  1  0  0  0  0
  7 12  1  0  0  0  0
  7 23  1  0  0  0  0
  8  4  2  0  0  0  0
  9  3  2  0  0  0  0
  9 24  1  0  0  0  0
 10  3  1  0  0  0  0
 10 25  1  0  0  0  0
 11 20  1  0  0  0  0
 11 26  1  0  0  0  0
 11 27  1  0  0  0  0
 12 19  1  0  0  0  0
 12 28  1  0  0  0  0
 12 29  1  0  0  0  0
 13  2  1  0  0  0  0
 13 30  1  0  0  0  0
 13 31  1  0  0  0  0
 14  4  1  0  0  0  0
 14 32  1  0  0  0  0
 15 17  1  0  0  0  0
 15 16  2  0  0  0  0
 16  9  1  0  0  0  0
 16 33  1  0  0  0  0
 17 10  2  0  0  0  0
 17 34  1  0  0  0  0
 18 15  1  0  0  0  0
 19 21  1  0  0  0  0
 19 35  1  0  0  0  0
 19 36  1  0  0  0  0
 20 21  1  0  0  0  0
 20 37  1  0  0  0  0
 20 38  1  0  0  0  0
 21 13  1  0  0  0  0
 21 39  1  0  0  0  0
M  END
>  <Mol_ID>
8729

>  <Formula>
C14H18FNO4S

>  <MolWeight>
315.3604232

>  <Cat>
P2872

>  <Name>
WAY-606801

>  <Synonyms>
N/A

>  <Target>
neuropeptide Y5 receptor

>  <Form>
free base

>  <CAS>
744248-54-2

>  <URL>
N/A

$$$$
