WAY-324894
 OpenBabel08302521423D

 22 23  0  0  0  0  0  0  0  0999 V2000
   -0.2228   -1.2014   -0.0593 N   0  0  0  0  0  0  0  0  0  0  0  0
   -0.3718    0.9877    0.1347 N   0  0  0  0  0  0  0  0  0  0  0  0
    1.0583   -0.7642   -0.1892 N   0  0  0  0  0  0  0  0  0  0  0  0
    0.9197    0.5612   -0.0364 C   0  0  0  0  0  0  0  0  0  0  0  0
   -1.0727   -0.1178    0.1102 C   0  0  0  0  0  0  0  0  0  0  0  0
   -0.5368   -2.5649   -0.1081 C   0  0  0  0  0  0  0  0  0  0  0  0
    2.0884    1.4910   -0.0380 C   0  0  0  0  0  0  0  0  0  0  0  0
    2.0276    2.8332    0.2247 O   0  0  0  0  0  0  0  0  0  0  0  0
   -2.4094   -0.2143    0.2342 N   0  0  0  0  0  0  0  0  0  0  0  0
    3.4027    1.1372   -0.2878 C   0  0  0  0  0  0  0  0  0  0  0  0
   -1.7037   -2.9363   -0.0299 O   0  0  0  0  0  0  0  0  0  0  0  0
    3.2949    3.3161    0.1626 C   0  0  0  0  0  0  0  0  0  0  0  0
    4.1785    2.3142   -0.1595 C   0  0  0  0  0  0  0  0  0  0  0  0
    0.6468   -3.4717   -0.2685 C   0  0  0  0  0  0  0  0  0  0  0  0
   -2.9729    0.6265    0.1691 H   0  0  0  0  0  0  0  0  0  0  0  0
   -2.8965   -1.0917    0.0521 H   0  0  0  0  0  0  0  0  0  0  0  0
    3.7511    0.1432   -0.5332 H   0  0  0  0  0  0  0  0  0  0  0  0
    3.4020    4.3722    0.3686 H   0  0  0  0  0  0  0  0  0  0  0  0
    5.2474    2.4177   -0.2816 H   0  0  0  0  0  0  0  0  0  0  0  0
    1.1358   -3.2946   -1.2303 H   0  0  0  0  0  0  0  0  0  0  0  0
    1.3551   -3.3335    0.5539 H   0  0  0  0  0  0  0  0  0  0  0  0
    0.3043   -4.5108   -0.2454 H   0  0  0  0  0  0  0  0  0  0  0  0
  2  5  2  0  0  0  0
  2  4  1  0  0  0  0
  3  1  1  0  0  0  0
  4  3  2  0  0  0  0
  5  1  1  0  0  0  0
  6  1  1  0  0  0  0
  7  4  1  0  0  0  0
  8  7  1  0  0  0  0
  9  5  1  0  0  0  0
  9 15  1  0  0  0  0
  9 16  1  0  0  0  0
 10  7  2  0  0  0  0
 10 17  1  0  0  0  0
 11  6  2  0  0  0  0
 12  8  1  0  0  0  0
 12 18  1  0  0  0  0
 13 10  1  0  0  0  0
 13 12  2  0  0  0  0
 13 19  1  0  0  0  0
 14  6  1  0  0  0  0
 14 20  1  0  0  0  0
 14 21  1  0  0  0  0
 14 22  1  0  0  0  0
M  END
>  <Mol_ID>
8658

>  <Formula>
C8H8N4O2

>  <MolWeight>
192.17472

>  <Cat>
P2357

>  <Name>
WAY-324894

>  <Synonyms>
N/A

>  <Target>
MTH1

>  <Form>
free base

>  <CAS>
720673-55-2

>  <URL>
N/A

$$$$
