WAY-324075
 OpenBabel08302521423D

 65 69  0  0  0  0  0  0  0  0999 V2000
   -0.1493   -0.2790   -0.0540 C   0  0  0  0  0  0  0  0  0  0  0  0
    1.1615    0.2858   -0.0500 C   0  0  0  0  0  0  0  0  0  0  0  0
   -1.4909    0.2707   -0.0169 C   0  0  0  0  0  0  0  0  0  0  0  0
   -0.2167   -1.6620   -0.0905 C   0  0  0  0  0  0  0  0  0  0  0  0
    2.2684   -0.6016   -0.1040 C   0  0  0  0  0  0  0  0  0  0  0  0
    1.4283    1.7774   -0.0018 C   0  0  0  0  0  0  0  0  0  0  0  0
   -2.4724   -0.7170    0.0513 C   0  0  0  0  0  0  0  0  0  0  0  0
   -1.8207    1.5918   -0.0210 N   0  0  0  0  0  0  0  0  0  0  0  0
   -1.7890   -2.2842   -0.0317 S   0  0  0  0  0  0  0  0  0  0  0  0
    0.8052   -2.5280   -0.1345 N   0  0  0  0  0  0  0  0  0  0  0  0
    2.0339   -1.9829   -0.1113 C   0  0  0  0  0  0  0  0  0  0  0  0
    3.6809   -0.0648   -0.0871 C   0  0  0  0  0  0  0  0  0  0  0  0
    2.8545    2.1183    0.4818 C   0  0  0  0  0  0  0  0  0  0  0  0
   -3.8277   -0.3744    0.1662 C   0  0  0  0  0  0  0  0  0  0  0  0
   -3.1387    1.8298    0.0493 C   0  0  0  0  0  0  0  0  0  0  0  0
    3.1394   -3.0084    0.0081 C   0  0  0  0  0  0  0  0  0  0  0  0
    3.7933    1.3442   -0.2725 O   0  0  0  0  0  0  0  0  0  0  0  0
    3.0358    1.9131    1.9956 C   0  0  0  0  0  0  0  0  0  0  0  0
    3.1804    3.5829    0.1564 C   0  0  0  0  0  0  0  0  0  0  0  0
   -4.1385    0.9358    0.1395 N   0  0  0  0  0  0  0  0  0  0  0  0
   -4.7989   -1.3570    0.3440 N   0  0  0  0  0  0  0  0  0  0  0  0
    3.4782   -3.3596    1.4649 C   0  0  0  0  0  0  0  0  0  0  0  0
   -6.1565   -1.0826   -0.1189 C   0  0  0  0  0  0  0  0  0  0  0  0
    2.3178   -4.0016    2.2343 C   0  0  0  0  0  0  0  0  0  0  0  0
   -7.0374   -2.3409    0.1147 C   0  0  0  0  0  0  0  0  0  0  0  0
    2.7251   -4.3825    3.6486 C   0  0  0  0  0  0  0  0  0  0  0  0
   -8.4666   -2.2007   -0.2045 N   0  0  0  0  0  0  0  0  0  0  0  0
   -9.2293   -3.4177    0.1594 C   0  0  0  0  0  0  0  0  0  0  0  0
   -8.7739   -1.8352   -1.6009 C   0  0  0  0  0  0  0  0  0  0  0  0
   -9.1354   -4.5452   -0.8801 C   0  0  0  0  0  0  0  0  0  0  0  0
   -8.8440   -2.9893   -2.6172 C   0  0  0  0  0  0  0  0  0  0  0  0
   -9.6271   -4.0935   -2.1452 O   0  0  0  0  0  0  0  0  0  0  0  0
    0.6948    2.2766    0.6411 H   0  0  0  0  0  0  0  0  0  0  0  0
    1.2881    2.1493   -1.0252 H   0  0  0  0  0  0  0  0  0  0  0  0
    4.2525   -0.5135   -0.9057 H   0  0  0  0  0  0  0  0  0  0  0  0
    4.1759   -0.3312    0.8532 H   0  0  0  0  0  0  0  0  0  0  0  0
   -3.4388    2.8738    0.0349 H   0  0  0  0  0  0  0  0  0  0  0  0
    2.8317   -3.9198   -0.5212 H   0  0  0  0  0  0  0  0  0  0  0  0
    4.0424   -2.6672   -0.5077 H   0  0  0  0  0  0  0  0  0  0  0  0
    4.0835    2.0629    2.2808 H   0  0  0  0  0  0  0  0  0  0  0  0
    2.4175    2.6116    2.5696 H   0  0  0  0  0  0  0  0  0  0  0  0
    2.7707    0.9005    2.3158 H   0  0  0  0  0  0  0  0  0  0  0  0
    3.1093    3.7716   -0.9210 H   0  0  0  0  0  0  0  0  0  0  0  0
    2.5121    4.2757    0.6775 H   0  0  0  0  0  0  0  0  0  0  0  0
    4.2138    3.8198    0.4388 H   0  0  0  0  0  0  0  0  0  0  0  0
   -4.4443   -2.2780    0.1030 H   0  0  0  0  0  0  0  0  0  0  0  0
    4.3242   -4.0587    1.4557 H   0  0  0  0  0  0  0  0  0  0  0  0
    3.8150   -2.4629    1.9986 H   0  0  0  0  0  0  0  0  0  0  0  0
   -6.5796   -0.2314    0.4256 H   0  0  0  0  0  0  0  0  0  0  0  0
   -6.1211   -0.8416   -1.1847 H   0  0  0  0  0  0  0  0  0  0  0  0
    1.4709   -3.3091    2.3035 H   0  0  0  0  0  0  0  0  0  0  0  0
    1.9692   -4.8962    1.7050 H   0  0  0  0  0  0  0  0  0  0  0  0
   -6.5957   -3.1926   -0.4175 H   0  0  0  0  0  0  0  0  0  0  0  0
   -6.9594   -2.5786    1.1859 H   0  0  0  0  0  0  0  0  0  0  0  0
    3.0174   -3.4955    4.2215 H   0  0  0  0  0  0  0  0  0  0  0  0
    1.8872   -4.8573    4.1686 H   0  0  0  0  0  0  0  0  0  0  0  0
    3.5644   -5.0846    3.6432 H   0  0  0  0  0  0  0  0  0  0  0  0
  -10.2829   -3.1237    0.2499 H   0  0  0  0  0  0  0  0  0  0  0  0
   -8.9287   -3.7896    1.1459 H   0  0  0  0  0  0  0  0  0  0  0  0
   -9.7622   -1.3586   -1.5786 H   0  0  0  0  0  0  0  0  0  0  0  0
   -8.0959   -1.0651   -1.9803 H   0  0  0  0  0  0  0  0  0  0  0  0
   -8.1096   -4.9129   -0.9994 H   0  0  0  0  0  0  0  0  0  0  0  0
   -9.7535   -5.3935   -0.5686 H   0  0  0  0  0  0  0  0  0  0  0  0
   -9.3198   -2.6338   -3.5359 H   0  0  0  0  0  0  0  0  0  0  0  0
   -7.8447   -3.3563   -2.8810 H   0  0  0  0  0  0  0  0  0  0  0  0
  1  2  1  0  0  0  0
  1  3  1  0  0  0  0
  1  4  2  0  0  0  0
  2  5  2  0  0  0  0
  2  6  1  0  0  0  0
  3  7  2  0  0  0  0
  3  8  1  0  0  0  0
  4  9  1  0  0  0  0
  4 10  1  0  0  0  0
  5 11  1  0  0  0  0
  5 12  1  0  0  0  0
  6 13  1  0  0  0  0
  6 33  1  0  0  0  0
  6 34  1  0  0  0  0
  7 14  1  0  0  0  0
  7  9  1  0  0  0  0
  8 15  2  0  0  0  0
 10 11  2  0  0  0  0
 11 16  1  0  0  0  0
 12 17  1  0  0  0  0
 12 35  1  0  0  0  0
 12 36  1  0  0  0  0
 13 18  1  0  0  0  0
 13 19  1  0  0  0  0
 13 17  1  0  0  0  0
 14 20  2  0  0  0  0
 14 21  1  0  0  0  0
 15 20  1  0  0  0  0
 15 37  1  0  0  0  0
 16 22  1  0  0  0  0
 16 38  1  0  0  0  0
 16 39  1  0  0  0  0
 18 40  1  0  0  0  0
 18 41  1  0  0  0  0
 18 42  1  0  0  0  0
 19 43  1  0  0  0  0
 19 44  1  0  0  0  0
 19 45  1  0  0  0  0
 21 23  1  0  0  0  0
 21 46  1  0  0  0  0
 22 24  1  0  0  0  0
 22 47  1  0  0  0  0
 22 48  1  0  0  0  0
 23 25  1  0  0  0  0
 23 49  1  0  0  0  0
 23 50  1  0  0  0  0
 24 26  1  0  0  0  0
 24 51  1  0  0  0  0
 24 52  1  0  0  0  0
 25 27  1  0  0  0  0
 25 53  1  0  0  0  0
 25 54  1  0  0  0  0
 26 55  1  0  0  0  0
 26 56  1  0  0  0  0
 26 57  1  0  0  0  0
 27 28  1  0  0  0  0
 27 29  1  0  0  0  0
 28 30  1  0  0  0  0
 28 58  1  0  0  0  0
 28 59  1  0  0  0  0
 29 31  1  0  0  0  0
 29 60  1  0  0  0  0
 29 61  1  0  0  0  0
 30 32  1  0  0  0  0
 30 62  1  0  0  0  0
 30 63  1  0  0  0  0
 31 32  1  0  0  0  0
 31 64  1  0  0  0  0
 31 65  1  0  0  0  0
M  END
>  <Mol_ID>
8603

>  <Formula>
C24H33N5O2S

>  <MolWeight>
455.61612

>  <Cat>
P2296

>  <Name>
WAY-324075

>  <Synonyms>
N/A

>  <Target>
PDE4

>  <Form>
free base

>  <CAS>
372085-49-9

>  <URL>
N/A

$$$$
