WAY-326166
 OpenBabel08302521433D

 54 57  0  0  0  0  0  0  0  0999 V2000
    0.2259   -0.7875    0.0606 C   0  0  0  0  0  0  0  0  0  0  0  0
    0.3303    0.6088    0.0119 N   0  0  0  0  0  0  0  0  0  0  0  0
    1.5245   -1.2767    0.0093 C   0  0  0  0  0  0  0  0  0  0  0  0
   -0.8048    1.4107    0.0281 C   0  0  0  0  0  0  0  0  0  0  0  0
   -0.9939   -1.4095    0.1241 N   0  0  0  0  0  0  0  0  0  0  0  0
    1.9346   -2.6777   -0.0261 C   0  0  0  0  0  0  0  0  0  0  0  0
    1.6241    1.0151   -0.0270 N   0  0  0  0  0  0  0  0  0  0  0  0
   -2.0220    0.8419    0.0786 C   0  0  0  0  0  0  0  0  0  0  0  0
    3.1440   -3.0276    0.6103 N   0  0  0  0  0  0  0  0  0  0  0  0
   -2.0591   -0.6537    0.0964 C   0  0  0  0  0  0  0  0  0  0  0  0
    2.3197   -0.1169   -0.1002 C   0  0  0  0  0  0  0  0  0  0  0  0
   -0.5878    2.8814    0.0096 C   0  0  0  0  0  0  0  0  0  0  0  0
   -3.4140   -1.2901    0.1004 C   0  0  0  0  0  0  0  0  0  0  0  0
    1.2568   -3.4842   -0.6541 O   0  0  0  0  0  0  0  0  0  0  0  0
    3.8223   -4.3461    0.4108 C   0  0  3  0  0  0  0  0  0  0  0  0
   -4.5154   -0.6951   -0.5307 C   0  0  0  0  0  0  0  0  0  0  0  0
   -3.5762   -2.5339    0.7199 C   0  0  0  0  0  0  0  0  0  0  0  0
   -0.4477    3.3294   -1.2672 F   0  0  0  0  0  0  0  0  0  0  0  0
   -1.6771    3.5377    0.5069 F   0  0  0  0  0  0  0  0  0  0  0  0
    3.6966   -2.2337    1.7176 C   0  0  0  0  0  0  0  0  0  0  0  0
   -5.9336   -2.5423    0.1363 C   0  0  0  0  0  0  0  0  0  0  0  0
   -4.8292   -3.1553    0.7322 C   0  0  0  0  0  0  0  0  0  0  0  0
   -5.7706   -1.3164   -0.5072 C   0  0  0  0  0  0  0  0  0  0  0  0
   -7.1002   -3.2526    0.1960 O   0  0  0  0  0  0  0  0  0  0  0  0
    3.3386   -5.2172   -0.7719 C   0  0  0  0  0  0  0  0  0  0  0  0
    3.8418   -5.1439    1.7301 C   0  0  0  0  0  0  0  0  0  0  0  0
   -8.2985   -2.4866    0.1369 C   0  0  0  0  0  0  0  0  0  0  0  0
    3.6728   -3.0115    3.0280 C   0  0  0  0  0  0  0  0  0  0  0  0
    4.1020   -6.5257   -0.9549 C   0  0  0  0  0  0  0  0  0  0  0  0
    4.4179   -4.3261    2.8829 C   0  0  0  0  0  0  0  0  0  0  0  0
   -2.9312    1.4268    0.1173 H   0  0  0  0  0  0  0  0  0  0  0  0
    3.3956   -0.0555   -0.2072 H   0  0  0  0  0  0  0  0  0  0  0  0
    0.2768    3.2045    0.5959 H   0  0  0  0  0  0  0  0  0  0  0  0
    4.8635   -4.0759    0.1791 H   0  0  0  0  0  0  0  0  0  0  0  0
   -4.4170    0.2367   -1.0800 H   0  0  0  0  0  0  0  0  0  0  0  0
   -2.7311   -3.0305    1.1926 H   0  0  0  0  0  0  0  0  0  0  0  0
    3.1371   -1.3164    1.8972 H   0  0  0  0  0  0  0  0  0  0  0  0
    4.7214   -1.9551    1.4455 H   0  0  0  0  0  0  0  0  0  0  0  0
   -4.9450   -4.1241    1.2121 H   0  0  0  0  0  0  0  0  0  0  0  0
   -6.5915   -0.8347   -1.0282 H   0  0  0  0  0  0  0  0  0  0  0  0
    2.2879   -5.4938   -0.6409 H   0  0  0  0  0  0  0  0  0  0  0  0
    3.4194   -4.6377   -1.6998 H   0  0  0  0  0  0  0  0  0  0  0  0
    4.4556   -6.0449    1.6317 H   0  0  0  0  0  0  0  0  0  0  0  0
    2.8234   -5.4645    1.9818 H   0  0  0  0  0  0  0  0  0  0  0  0
   -8.3203   -1.7335    0.9320 H   0  0  0  0  0  0  0  0  0  0  0  0
   -8.4371   -2.0259   -0.8459 H   0  0  0  0  0  0  0  0  0  0  0  0
   -9.1381   -3.1699    0.2981 H   0  0  0  0  0  0  0  0  0  0  0  0
    2.6342   -3.2100    3.3195 H   0  0  0  0  0  0  0  0  0  0  0  0
    4.1263   -2.4109    3.8241 H   0  0  0  0  0  0  0  0  0  0  0  0
    5.1809   -6.3594   -1.0161 H   0  0  0  0  0  0  0  0  0  0  0  0
    3.8987   -7.2212   -0.1341 H   0  0  0  0  0  0  0  0  0  0  0  0
    3.7762   -7.0218   -1.8753 H   0  0  0  0  0  0  0  0  0  0  0  0
    4.3503   -4.8986    3.8140 H   0  0  0  0  0  0  0  0  0  0  0  0
    5.4822   -4.1303    2.7008 H   0  0  0  0  0  0  0  0  0  0  0  0
  2  1  1  0  0  0  0
  3  1  2  0  0  0  0
  4  2  1  0  0  0  0
  4  8  2  0  0  0  0
  5  1  1  0  0  0  0
  6  3  1  0  0  0  0
  7  2  1  0  0  0  0
  7 11  2  0  0  0  0
  8 10  1  0  0  0  0
  8 31  1  0  0  0  0
  9  6  1  0  0  0  0
 10  5  2  0  0  0  0
 11  3  1  0  0  0  0
 11 32  1  0  0  0  0
 12  4  1  0  0  0  0
 12 33  1  0  0  0  0
 13 10  1  0  0  0  0
 14  6  2  0  0  0  0
 15  9  1  0  0  0  0
 15 34  1  0  0  0  0
 16 13  2  0  0  0  0
 16 35  1  0  0  0  0
 17 13  1  0  0  0  0
 17 36  1  0  0  0  0
 18 12  1  0  0  0  0
 19 12  1  0  0  0  0
 20  9  1  0  0  0  0
 20 37  1  0  0  0  0
 20 38  1  0  0  0  0
 21 22  1  0  0  0  0
 22 17  2  0  0  0  0
 22 39  1  0  0  0  0
 23 16  1  0  0  0  0
 23 21  2  0  0  0  0
 23 40  1  0  0  0  0
 24 21  1  0  0  0  0
 25 15  1  0  0  0  0
 25 41  1  0  0  0  0
 25 42  1  0  0  0  0
 26 15  1  0  0  0  0
 26 30  1  0  0  0  0
 26 43  1  0  0  0  0
 26 44  1  0  0  0  0
 27 24  1  0  0  0  0
 27 45  1  0  0  0  0
 27 46  1  0  0  0  0
 27 47  1  0  0  0  0
 28 20  1  0  0  0  0
 28 48  1  0  0  0  0
 28 49  1  0  0  0  0
 29 25  1  0  0  0  0
 29 50  1  0  0  0  0
 29 51  1  0  0  0  0
 29 52  1  0  0  0  0
 30 28  1  0  0  0  0
 30 53  1  0  0  0  0
 30 54  1  0  0  0  0
M  END
>  <Mol_ID>
8899

>  <Formula>
C22H24F2N4O2

>  <MolWeight>
414.4483664

>  <Cat>
P2457

>  <Name>
WAY-326166

>  <Synonyms>
N/A

>  <Target>
11¦Â-HSD1

>  <Form>
free base

>  <CAS>
869774-94-7

>  <URL>
N/A

$$$$
