WAY-324474-A
 OpenBabel08302521423D

 35 36  0  0  0  0  0  0  0  0999 V2000
    1.6394   -2.1792    0.7454 C   0  0  0  0  0  0  0  0  0  0  0  0
    2.7807   -2.8188    0.1699 C   0  0  0  0  0  0  0  0  0  0  0  0
    2.1634   -1.4713    1.8182 C   0  0  0  0  0  0  0  0  0  0  0  0
    0.1924   -2.2692    0.3272 C   0  0  0  0  0  0  0  0  0  0  0  0
    3.9152   -2.4570    0.7807 N   0  0  0  0  0  0  0  0  0  0  0  0
    2.8513   -3.7981   -0.9436 C   0  0  0  0  0  0  0  0  0  0  0  0
    3.5174   -1.6357    1.7557 N   0  0  0  0  0  0  0  0  0  0  0  0
    1.5266   -0.6751    2.8890 C   0  0  0  0  0  0  0  0  0  0  0  0
   -0.6055   -3.2347    1.2056 C   0  0  0  0  0  0  0  0  0  0  0  0
   -2.1292   -3.1596    1.0562 C   0  0  0  0  0  0  0  0  0  0  0  0
   -2.5796   -3.4814   -0.2640 O   0  0  0  0  0  0  0  0  0  0  0  0
   -3.9495   -3.4575   -0.4179 C   0  0  0  0  0  0  0  0  0  0  0  0
   -4.4254   -3.0937   -1.6826 C   0  0  0  0  0  0  0  0  0  0  0  0
   -4.8719   -3.8029    0.5788 C   0  0  0  0  0  0  0  0  0  0  0  0
   -5.8018   -3.0103   -1.9273 C   0  0  0  0  0  0  0  0  0  0  0  0
   -6.2479   -3.7260    0.3343 C   0  0  0  0  0  0  0  0  0  0  0  0
   -6.7030   -3.3196   -0.9119 C   0  0  0  0  0  0  0  0  0  0  0  0
   -8.0173   -3.2324   -1.1417 F   0  0  0  0  0  0  0  0  0  0  0  0
   -0.2445   -1.2639    0.3883 H   0  0  0  0  0  0  0  0  0  0  0  0
    0.1237   -2.5734   -0.7238 H   0  0  0  0  0  0  0  0  0  0  0  0
    2.1925   -4.6489   -0.7444 H   0  0  0  0  0  0  0  0  0  0  0  0
    2.5607   -3.3364   -1.8909 H   0  0  0  0  0  0  0  0  0  0  0  0
    3.8689   -4.1918   -1.0588 H   0  0  0  0  0  0  0  0  0  0  0  0
    4.2256   -1.2356    2.3611 H   0  0  0  0  0  0  0  0  0  0  0  0
    0.8679    0.0899    2.4700 H   0  0  0  0  0  0  0  0  0  0  0  0
    0.9333   -1.3298    3.5358 H   0  0  0  0  0  0  0  0  0  0  0  0
    2.2730   -0.1779    3.5173 H   0  0  0  0  0  0  0  0  0  0  0  0
   -0.2692   -4.2573    0.9987 H   0  0  0  0  0  0  0  0  0  0  0  0
   -0.3803   -3.0345    2.2610 H   0  0  0  0  0  0  0  0  0  0  0  0
   -2.5292   -3.8841    1.7734 H   0  0  0  0  0  0  0  0  0  0  0  0
   -2.4823   -2.1564    1.3252 H   0  0  0  0  0  0  0  0  0  0  0  0
   -3.7252   -2.8529   -2.4790 H   0  0  0  0  0  0  0  0  0  0  0  0
   -4.5574   -4.1539    1.5546 H   0  0  0  0  0  0  0  0  0  0  0  0
   -6.1758   -2.7117   -2.9019 H   0  0  0  0  0  0  0  0  0  0  0  0
   -6.9634   -3.9828    1.1100 H   0  0  0  0  0  0  0  0  0  0  0  0
  1  2  1  0  0  0  0
  1  3  2  0  0  0  0
  1  4  1  0  0  0  0
  2  5  2  0  0  0  0
  2  6  1  0  0  0  0
  3  7  1  0  0  0  0
  3  8  1  0  0  0  0
  4  9  1  0  0  0  0
  4 19  1  0  0  0  0
  4 20  1  0  0  0  0
  5  7  1  0  0  0  0
  6 21  1  0  0  0  0
  6 22  1  0  0  0  0
  6 23  1  0  0  0  0
  7 24  1  0  0  0  0
  8 25  1  0  0  0  0
  8 26  1  0  0  0  0
  8 27  1  0  0  0  0
  9 10  1  0  0  0  0
  9 28  1  0  0  0  0
  9 29  1  0  0  0  0
 10 11  1  0  0  0  0
 10 30  1  0  0  0  0
 10 31  1  0  0  0  0
 11 12  1  0  0  0  0
 12 13  2  0  0  0  0
 12 14  1  0  0  0  0
 13 15  1  0  0  0  0
 13 32  1  0  0  0  0
 14 16  2  0  0  0  0
 14 33  1  0  0  0  0
 15 17  2  0  0  0  0
 15 34  1  0  0  0  0
 16 17  1  0  0  0  0
 16 35  1  0  0  0  0
 17 18  1  0  0  0  0
M  END
>  <Mol_ID>
8633

>  <Formula>
C14H17FN2O

>  <MolWeight>
248.2959832

>  <Cat>
P2321

>  <Name>
WAY-324474-A

>  <Synonyms>
N/A

>  <Target>
other

>  <Form>
free base

>  <CAS>
415724-43-5

>  <URL>
N/A

$$$$
