WAY-325952
 OpenBabel08302521433D

 43 45  0  0  0  0  0  0  0  0999 V2000
    0.0733    1.2910    0.0200 C   0  0  0  0  0  0  0  0  0  0  0  0
   -1.4191    7.1653    0.0644 C   0  0  0  0  0  0  0  0  0  0  0  0
    1.2272    0.6129    0.0172 N   0  0  0  0  0  0  0  0  0  0  0  0
    2.4345   -1.5596    0.0124 C   0  0  0  0  0  0  0  0  0  0  0  0
   -1.1441    0.7282   -0.0126 N   0  0  0  0  0  0  0  0  0  0  0  0
    1.1559   -0.7390    0.0012 C   0  0  0  0  0  0  0  0  0  0  0  0
   -1.5090    7.9329    1.1552 N   0  0  0  0  0  0  0  0  0  0  0  0
   -1.4549    7.9746   -1.1007 C   0  0  0  0  0  0  0  0  0  0  0  0
   -1.3209    5.7805    0.0718 N   0  0  0  0  0  0  0  0  0  0  0  0
   -1.3212    5.0311    1.2330 C   0  0  0  0  0  0  0  0  0  0  0  0
   -1.2050   -0.6237   -0.0289 C   0  0  0  0  0  0  0  0  0  0  0  0
   -0.0585   -1.3990   -0.0210 C   0  0  0  0  0  0  0  0  0  0  0  0
    0.2167    3.0603    0.0690 S   0  0  0  0  0  0  0  0  0  0  0  0
   -1.6119    9.2327    0.7247 O   0  0  0  0  0  0  0  0  0  0  0  0
   -1.5901    9.2596   -0.6309 C   0  0  0  0  0  0  0  0  0  0  0  0
   -1.2751    3.5053    1.0363 C   0  0  3  0  0  0  0  0  0  0  0  0
   -1.4241    5.5024    2.3672 O   0  0  0  0  0  0  0  0  0  0  0  0
   -2.5570   -1.2250   -0.0219 C   0  0  0  0  0  0  0  0  0  0  0  0
    3.5764   -0.8217    0.0679 F   0  0  0  0  0  0  0  0  0  0  0  0
    2.4894   -2.4170    1.0730 F   0  0  0  0  0  0  0  0  0  0  0  0
    2.5500   -2.3473   -1.0965 F   0  0  0  0  0  0  0  0  0  0  0  0
   -1.7182   10.5927   -1.2451 C   0  0  0  0  0  0  0  0  0  0  0  0
   -1.2774    2.8352    2.4160 C   0  0  0  0  0  0  0  0  0  0  0  0
   -2.8193   -2.4675   -0.6333 C   0  0  0  0  0  0  0  0  0  0  0  0
   -3.6332   -0.5853    0.6199 C   0  0  0  0  0  0  0  0  0  0  0  0
   -4.0883   -3.0527   -0.5867 C   0  0  0  0  0  0  0  0  0  0  0  0
   -4.9028   -1.1714    0.6729 C   0  0  0  0  0  0  0  0  0  0  0  0
   -5.1281   -2.4066    0.0725 C   0  0  0  0  0  0  0  0  0  0  0  0
   -1.4109    7.6705   -2.1342 H   0  0  0  0  0  0  0  0  0  0  0  0
   -1.2044    5.3166   -0.8203 H   0  0  0  0  0  0  0  0  0  0  0  0
   -0.0972   -2.4828   -0.0110 H   0  0  0  0  0  0  0  0  0  0  0  0
   -2.1709    3.2151    0.4755 H   0  0  0  0  0  0  0  0  0  0  0  0
   -2.5498   11.1436   -0.7933 H   0  0  0  0  0  0  0  0  0  0  0  0
   -0.8033   11.1727   -1.0943 H   0  0  0  0  0  0  0  0  0  0  0  0
   -1.9070   10.5143   -2.3188 H   0  0  0  0  0  0  0  0  0  0  0  0
   -1.2316    1.7454    2.3709 H   0  0  0  0  0  0  0  0  0  0  0  0
   -0.4419    3.1850    3.0342 H   0  0  0  0  0  0  0  0  0  0  0  0
   -2.2008    3.0875    2.9515 H   0  0  0  0  0  0  0  0  0  0  0  0
   -2.0378   -3.0018   -1.1690 H   0  0  0  0  0  0  0  0  0  0  0  0
   -3.4855    0.3793    1.1027 H   0  0  0  0  0  0  0  0  0  0  0  0
   -4.2609   -4.0130   -1.0666 H   0  0  0  0  0  0  0  0  0  0  0  0
   -5.7140   -0.6627    1.1879 H   0  0  0  0  0  0  0  0  0  0  0  0
   -6.1133   -2.8636    0.1152 H   0  0  0  0  0  0  0  0  0  0  0  0
  2  9  1  0  0  0  0
  3  1  2  0  0  0  0
  4  6  1  0  0  0  0
  5  1  1  0  0  0  0
  6  3  1  0  0  0  0
  6 12  2  0  0  0  0
  7  2  2  0  0  0  0
  8  2  1  0  0  0  0
  8 29  1  0  0  0  0
  9 10  1  0  0  0  0
  9 30  1  0  0  0  0
 10 16  1  0  0  0  0
 11  5  2  0  0  0  0
 12 11  1  0  0  0  0
 12 31  1  0  0  0  0
 13  1  1  0  0  0  0
 14  7  1  0  0  0  0
 15  8  2  0  0  0  0
 15 14  1  0  0  0  0
 16 13  1  0  0  0  0
 16 32  1  0  0  0  0
 17 10  2  0  0  0  0
 18 11  1  0  0  0  0
 19  4  1  0  0  0  0
 20  4  1  0  0  0  0
 21  4  1  0  0  0  0
 22 15  1  0  0  0  0
 22 33  1  0  0  0  0
 22 34  1  0  0  0  0
 22 35  1  0  0  0  0
 23 16  1  0  0  0  0
 23 36  1  0  0  0  0
 23 37  1  0  0  0  0
 23 38  1  0  0  0  0
 24 18  2  0  0  0  0
 24 39  1  0  0  0  0
 25 18  1  0  0  0  0
 25 40  1  0  0  0  0
 26 24  1  0  0  0  0
 26 28  2  0  0  0  0
 26 41  1  0  0  0  0
 27 25  2  0  0  0  0
 27 42  1  0  0  0  0
 28 27  1  0  0  0  0
 28 43  1  0  0  0  0
M  END
>  <Mol_ID>
8862

>  <Formula>
C18H15F3N4O2S

>  <MolWeight>
408.3975096

>  <Cat>
P2440

>  <Name>
WAY-325952

>  <Synonyms>
N/A

>  <Target>
Hsp90

>  <Form>
free base

>  <CAS>
868972-66-1

>  <URL>
N/A

$$$$
