WAY-200070
 OpenBabel08302521323D

 26 28  0  0  0  0  0  0  0  0999 V2000
    0.9457    0.1365    0.0606 Br  0  0  0  0  0  0  0  0  0  0  0  0
    5.5483   -2.4236   -0.0141 O   0  0  0  0  0  0  0  0  0  0  0  0
    4.2977    8.8150    0.1595 O   0  0  0  0  0  0  0  0  0  0  0  0
    3.6241    1.1912    0.0322 C   0  0  0  0  0  0  0  0  0  0  0  0
    5.0091    1.1590    0.0054 C   0  0  0  0  0  0  0  0  0  0  0  0
    3.2412    2.5039    0.0410 O   0  0  0  0  0  0  0  0  0  0  0  0
    2.8255    0.0522    0.0391 C   0  0  0  0  0  0  0  0  0  0  0  0
    5.5057    2.4354   -0.0037 N   0  0  0  0  0  0  0  0  0  0  0  0
    5.6684   -0.0744   -0.0073 C   0  0  0  0  0  0  0  0  0  0  0  0
    4.4265    3.1961    0.0149 C   0  0  0  0  0  0  0  0  0  0  0  0
    3.4897   -1.1818    0.0211 C   0  0  0  0  0  0  0  0  0  0  0  0
    4.8847   -1.2309    0.0007 C   0  0  0  0  0  0  0  0  0  0  0  0
    4.3478    4.6545    0.0237 C   0  0  0  0  0  0  0  0  0  0  0  0
    3.1238    5.3414    0.0343 C   0  0  0  0  0  0  0  0  0  0  0  0
    5.5373    5.4022    0.0353 C   0  0  0  0  0  0  0  0  0  0  0  0
    3.0898    6.7396    0.0760 C   0  0  0  0  0  0  0  0  0  0  0  0
    5.5061    6.7975    0.0731 C   0  0  0  0  0  0  0  0  0  0  0  0
    4.2837    7.4537    0.1014 C   0  0  0  0  0  0  0  0  0  0  0  0
    4.9082   -3.1530    0.0016 H   0  0  0  0  0  0  0  0  0  0  0  0
    3.3825    9.1347    0.2132 H   0  0  0  0  0  0  0  0  0  0  0  0
    6.7514   -0.1244   -0.0271 H   0  0  0  0  0  0  0  0  0  0  0  0
    2.9079   -2.1002    0.0202 H   0  0  0  0  0  0  0  0  0  0  0  0
    2.1839    4.7928    0.0157 H   0  0  0  0  0  0  0  0  0  0  0  0
    6.5009    4.8945    0.0215 H   0  0  0  0  0  0  0  0  0  0  0  0
    2.1303    7.2466    0.0919 H   0  0  0  0  0  0  0  0  0  0  0  0
    6.4323    7.3634    0.0886 H   0  0  0  0  0  0  0  0  0  0  0  0
  1  7  1  0  0  0  0
  2 12  1  0  0  0  0
  2 19  1  0  0  0  0
  3 18  1  0  0  0  0
  3 20  1  0  0  0  0
  4  5  2  0  0  0  0
  4  6  1  0  0  0  0
  4  7  1  0  0  0  0
  5  8  1  0  0  0  0
  5  9  1  0  0  0  0
  6 10  1  0  0  0  0
  7 11  2  0  0  0  0
  8 10  2  0  0  0  0
  9 12  2  0  0  0  0
  9 21  1  0  0  0  0
 10 13  1  0  0  0  0
 11 12  1  0  0  0  0
 11 22  1  0  0  0  0
 13 14  2  0  0  0  0
 13 15  1  0  0  0  0
 14 16  1  0  0  0  0
 14 23  1  0  0  0  0
 15 17  2  0  0  0  0
 15 24  1  0  0  0  0
 16 18  2  0  0  0  0
 16 25  1  0  0  0  0
 17 18  1  0  0  0  0
 17 26  1  0  0  0  0
M  END
>  <Mol_ID>
6146

>  <Formula>
C13H8BrNO3

>  <MolWeight>
306.11152

>  <Cat>
S0143

>  <Name>
WAY-200070

>  <Synonyms>
N/A

>  <Target>
Estrogen/progestogen Receptor

>  <Form>
free base

>  <CAS>
440122-66-7

>  <URL>
http://www.selleckchem.com/products/way-200070.html

$$$$
