WAY-310430
 OpenBabel08302521393D

 32 34  0  0  0  0  0  0  0  0999 V2000
    1.5610   -1.1639    0.0534 C   0  0  0  0  0  0  0  0  0  0  0  0
    0.2431   -0.7390    0.0251 N   0  0  0  0  0  0  0  0  0  0  0  0
    2.3065    0.0123   -0.0130 C   0  0  0  0  0  0  0  0  0  0  0  0
    2.1299   -2.4852    0.2207 C   0  0  0  0  0  0  0  0  0  0  0  0
    0.2786    0.6562   -0.0596 C   0  0  0  0  0  0  0  0  0  0  0  0
   -0.9665   -1.4429    0.0998 C   0  0  0  0  0  0  0  0  0  0  0  0
    1.5055    1.1166   -0.1027 N   0  0  0  0  0  0  0  0  0  0  0  0
    3.7836    0.1729   -0.0012 C   0  0  0  0  0  0  0  0  0  0  0  0
    1.4894   -3.5421   -0.4107 N   0  0  0  0  0  0  0  0  0  0  0  0
    3.1851   -2.6084    0.8350 O   0  0  0  0  0  0  0  0  0  0  0  0
   -0.9562    1.3608   -0.0695 C   0  0  0  0  0  0  0  0  0  0  0  0
   -2.1325   -0.7706    0.0685 C   0  0  0  0  0  0  0  0  0  0  0  0
    1.9815   -4.8758   -0.4626 C   0  0  0  0  0  0  0  0  0  0  0  0
   -2.1165    0.6809   -0.0162 C   0  0  0  0  0  0  0  0  0  0  0  0
    3.0238   -5.3515    0.3427 C   0  0  0  0  0  0  0  0  0  0  0  0
    1.4244   -5.7533   -1.4007 C   0  0  0  0  0  0  0  0  0  0  0  0
    3.5536   -6.6324    0.1639 C   0  0  0  0  0  0  0  0  0  0  0  0
    1.9451   -7.0414   -1.5757 C   0  0  0  0  0  0  0  0  0  0  0  0
    3.0255   -7.4737   -0.8072 C   0  0  0  0  0  0  0  0  0  0  0  0
   -0.9342   -2.5185    0.1960 H   0  0  0  0  0  0  0  0  0  0  0  0
    4.2152   -0.2432    0.9147 H   0  0  0  0  0  0  0  0  0  0  0  0
    4.2293   -0.3349   -0.8625 H   0  0  0  0  0  0  0  0  0  0  0  0
    4.0615    1.2299   -0.0481 H   0  0  0  0  0  0  0  0  0  0  0  0
    0.7404   -3.3188   -1.0512 H   0  0  0  0  0  0  0  0  0  0  0  0
   -0.9291    2.4442   -0.1084 H   0  0  0  0  0  0  0  0  0  0  0  0
   -3.0921   -1.2719    0.1234 H   0  0  0  0  0  0  0  0  0  0  0  0
   -3.0637    1.2104   -0.0132 H   0  0  0  0  0  0  0  0  0  0  0  0
    3.4654   -4.7469    1.1276 H   0  0  0  0  0  0  0  0  0  0  0  0
    0.5944   -5.4439   -2.0351 H   0  0  0  0  0  0  0  0  0  0  0  0
    4.3878   -6.9577    0.7808 H   0  0  0  0  0  0  0  0  0  0  0  0
    1.5285   -7.7021   -2.3303 H   0  0  0  0  0  0  0  0  0  0  0  0
    3.4565   -8.4583   -0.9630 H   0  0  0  0  0  0  0  0  0  0  0  0
  1  2  1  0  0  0  0
  1  3  2  0  0  0  0
  1  4  1  0  0  0  0
  2  5  1  0  0  0  0
  2  6  1  0  0  0  0
  3  7  1  0  0  0  0
  3  8  1  0  0  0  0
  4  9  1  0  0  0  0
  4 10  2  0  0  0  0
  5 11  1  0  0  0  0
  5  7  2  0  0  0  0
  6 12  2  0  0  0  0
  6 20  1  0  0  0  0
  8 21  1  0  0  0  0
  8 22  1  0  0  0  0
  8 23  1  0  0  0  0
  9 13  1  0  0  0  0
  9 24  1  0  0  0  0
 11 14  2  0  0  0  0
 11 25  1  0  0  0  0
 12 14  1  0  0  0  0
 12 26  1  0  0  0  0
 13 15  2  0  0  0  0
 13 16  1  0  0  0  0
 14 27  1  0  0  0  0
 15 17  1  0  0  0  0
 15 28  1  0  0  0  0
 16 18  2  0  0  0  0
 16 29  1  0  0  0  0
 17 19  2  0  0  0  0
 17 30  1  0  0  0  0
 18 19  1  0  0  0  0
 18 31  1  0  0  0  0
 19 32  1  0  0  0  0
M  END
>  <Mol_ID>
8110

>  <Formula>
C15H13N3O

>  <MolWeight>
251.28322

>  <Cat>
P2182

>  <Name>
WAY-310430

>  <Synonyms>
N/A

>  <Target>
Anti-infection

>  <Form>
free base

>  <CAS>
686743-67-9

>  <URL>
N/A

$$$$
