WAY-239593
 OpenBabel08302521403D

 52 53  0  0  0  0  0  0  0  0999 V2000
   -1.1643    1.1935    0.1595 C   0  0  0  0  0  0  0  0  0  0  0  0
   -1.9152    0.0221    0.1715 C   0  0  0  0  0  0  0  0  0  0  0  0
    0.2457    1.1089    0.0582 C   0  0  0  0  0  0  0  0  0  0  0  0
   -1.7970    2.8351    0.3899 S   0  0  0  0  0  0  0  0  0  0  0  0
   -1.2166   -1.1975    0.0715 C   0  0  0  0  0  0  0  0  0  0  0  0
   -3.2364   -0.1942    0.4387 O   0  0  0  0  0  0  0  0  0  0  0  0
    0.9494   -0.1125   -0.0145 C   0  0  0  0  0  0  0  0  0  0  0  0
   -2.3758    2.8264    1.9594 N   0  0  0  0  0  0  0  0  0  0  0  0
   -0.7023    3.7766    0.3381 O   0  0  0  0  0  0  0  0  0  0  0  0
   -2.9300    3.0425   -0.4866 O   0  0  0  0  0  0  0  0  0  0  0  0
    0.1923   -1.2926   -0.0083 C   0  0  0  0  0  0  0  0  0  0  0  0
   -4.2323    0.6218   -0.1537 C   0  0  0  0  0  0  0  0  0  0  0  0
    2.4754   -0.0789   -0.0403 C   0  0  0  0  0  0  0  0  0  0  0  0
   -1.5001    2.6262    3.1229 C   0  0  0  0  0  0  0  0  0  0  0  0
    0.7619   -2.6861   -0.0401 C   0  0  0  0  0  0  0  0  0  0  0  0
    3.0194    0.7606   -1.2025 C   0  0  0  0  0  0  0  0  0  0  0  0
    3.0468    0.4030    1.2997 C   0  0  0  0  0  0  0  0  0  0  0  0
   -0.5398    3.8132    3.3389 C   0  0  0  0  0  0  0  0  0  0  0  0
    0.3481    3.7017    4.5125 N   0  0  0  0  0  0  0  0  0  0  0  0
   -0.3624    3.7646    5.8055 C   0  0  0  0  0  0  0  0  0  0  0  0
    1.3527    4.7965    4.5049 C   0  0  0  0  0  0  0  0  0  0  0  0
   -0.9466    5.1512    6.1158 C   0  0  0  0  0  0  0  0  0  0  0  0
    0.7873    6.1808    4.8793 C   0  0  0  0  0  0  0  0  0  0  0  0
    0.0805    6.1490    6.1266 O   0  0  0  0  0  0  0  0  0  0  0  0
    0.8291    2.0304    0.0907 H   0  0  0  0  0  0  0  0  0  0  0  0
   -1.7976   -2.1223    0.0902 H   0  0  0  0  0  0  0  0  0  0  0  0
   -3.3429    3.1180    2.0843 H   0  0  0  0  0  0  0  0  0  0  0  0
   -4.4079    1.5035    0.4641 H   0  0  0  0  0  0  0  0  0  0  0  0
   -4.0162    0.8657   -1.1981 H   0  0  0  0  0  0  0  0  0  0  0  0
   -5.1731    0.0608   -0.1355 H   0  0  0  0  0  0  0  0  0  0  0  0
    2.8766   -1.0809   -0.2019 H   0  0  0  0  0  0  0  0  0  0  0  0
   -2.1559    2.5061    3.9922 H   0  0  0  0  0  0  0  0  0  0  0  0
   -0.9476    1.6874    3.0235 H   0  0  0  0  0  0  0  0  0  0  0  0
    0.4375   -3.2352    0.8512 H   0  0  0  0  0  0  0  0  0  0  0  0
    0.4033   -3.2135   -0.9305 H   0  0  0  0  0  0  0  0  0  0  0  0
    1.8500   -2.7305   -0.0545 H   0  0  0  0  0  0  0  0  0  0  0  0
    2.7060    1.8079   -1.1502 H   0  0  0  0  0  0  0  0  0  0  0  0
    4.1150    0.7465   -1.2075 H   0  0  0  0  0  0  0  0  0  0  0  0
    2.6764    0.3549   -2.1608 H   0  0  0  0  0  0  0  0  0  0  0  0
    2.7406   -0.2632    2.1143 H   0  0  0  0  0  0  0  0  0  0  0  0
    4.1422    0.4106    1.2730 H   0  0  0  0  0  0  0  0  0  0  0  0
    2.7142    1.4151    1.5541 H   0  0  0  0  0  0  0  0  0  0  0  0
    0.1206    3.8621    2.4713 H   0  0  0  0  0  0  0  0  0  0  0  0
   -1.1187    4.7437    3.3436 H   0  0  0  0  0  0  0  0  0  0  0  0
    0.3676    3.5157    6.5876 H   0  0  0  0  0  0  0  0  0  0  0  0
   -1.1374    2.9949    5.8699 H   0  0  0  0  0  0  0  0  0  0  0  0
    2.1282    4.5321    5.2321 H   0  0  0  0  0  0  0  0  0  0  0  0
    1.8603    4.8504    3.5314 H   0  0  0  0  0  0  0  0  0  0  0  0
   -1.7253    5.4363    5.3994 H   0  0  0  0  0  0  0  0  0  0  0  0
   -1.4065    5.1406    7.1085 H   0  0  0  0  0  0  0  0  0  0  0  0
    1.6125    6.8913    4.9934 H   0  0  0  0  0  0  0  0  0  0  0  0
    0.1244    6.5739    4.1005 H   0  0  0  0  0  0  0  0  0  0  0  0
  1  2  2  0  0  0  0
  1  3  1  0  0  0  0
  1  4  1  0  0  0  0
  2  5  1  0  0  0  0
  2  6  1  0  0  0  0
  3  7  2  0  0  0  0
  3 25  1  0  0  0  0
  4  8  1  0  0  0  0
  4  9  2  0  0  0  0
  4 10  2  0  0  0  0
  5 11  2  0  0  0  0
  5 26  1  0  0  0  0
  6 12  1  0  0  0  0
  7 13  1  0  0  0  0
  7 11  1  0  0  0  0
  8 14  1  0  0  0  0
  8 27  1  0  0  0  0
 11 15  1  0  0  0  0
 12 28  1  0  0  0  0
 12 29  1  0  0  0  0
 12 30  1  0  0  0  0
 13 16  1  0  0  0  0
 13 17  1  0  0  0  0
 13 31  1  0  0  0  0
 14 18  1  0  0  0  0
 14 32  1  0  0  0  0
 14 33  1  0  0  0  0
 15 34  1  0  0  0  0
 15 35  1  0  0  0  0
 15 36  1  0  0  0  0
 16 37  1  0  0  0  0
 16 38  1  0  0  0  0
 16 39  1  0  0  0  0
 17 40  1  0  0  0  0
 17 41  1  0  0  0  0
 17 42  1  0  0  0  0
 18 19  1  0  0  0  0
 18 43  1  0  0  0  0
 18 44  1  0  0  0  0
 19 20  1  0  0  0  0
 19 21  1  0  0  0  0
 20 22  1  0  0  0  0
 20 45  1  0  0  0  0
 20 46  1  0  0  0  0
 21 23  1  0  0  0  0
 21 47  1  0  0  0  0
 21 48  1  0  0  0  0
 22 24  1  0  0  0  0
 22 49  1  0  0  0  0
 22 50  1  0  0  0  0
 23 24  1  0  0  0  0
 23 51  1  0  0  0  0
 23 52  1  0  0  0  0
M  END
>  <Mol_ID>
8330

>  <Formula>
C17H28N2O4S

>  <MolWeight>
356.48022

>  <Cat>
P2072

>  <Name>
WAY-239593

>  <Synonyms>
N/A

>  <Target>
others

>  <Form>
free base

>  <CAS>
409357-43-3

>  <URL>
N/A

$$$$
