WAY-299845-A
 OpenBabel08302521413D

 46 48  0  0  0  0  0  0  0  0999 V2000
   -1.5023   -1.2708    0.2924 C   0  0  0  0  0  0  0  0  0  0  0  0
   -0.1504   -0.7932    0.2379 C   0  0  0  0  0  0  0  0  0  0  0  0
   -2.2849   -0.1976   -0.1231 C   0  0  0  0  0  0  0  0  0  0  0  0
   -1.9624   -2.6218    0.6006 C   0  0  0  0  0  0  0  0  0  0  0  0
   -0.2328    0.5690    0.0062 C   0  0  0  0  0  0  0  0  0  0  0  0
    1.1340   -1.3673    0.3147 C   0  0  0  0  0  0  0  0  0  0  0  0
   -1.5214    0.9366   -0.1944 O   0  0  0  0  0  0  0  0  0  0  0  0
   -3.6905   -0.0338   -0.6118 C   0  0  0  0  0  0  0  0  0  0  0  0
   -1.0668   -3.2874    1.3987 O   0  0  0  0  0  0  0  0  0  0  0  0
   -3.0214   -3.0946    0.2118 O   0  0  0  0  0  0  0  0  0  0  0  0
    0.8649    1.4224   -0.0706 C   0  0  0  0  0  0  0  0  0  0  0  0
    2.2699   -0.5548    0.1625 C   0  0  0  0  0  0  0  0  0  0  0  0
   -4.6743    0.4473    0.3796 N   0  0  0  0  0  0  0  0  0  0  0  0
   -1.2978   -4.6830    1.6589 C   0  0  0  0  0  0  0  0  0  0  0  0
    2.1307    0.8266    0.0052 C   0  0  0  0  0  0  0  0  0  0  0  0
    3.4533   -1.2443    0.1671 O   0  0  0  0  0  0  0  0  0  0  0  0
   -5.9523    0.6972   -0.3216 C   0  0  0  0  0  0  0  0  0  0  0  0
   -4.8524   -0.5255    1.4666 C   0  0  0  0  0  0  0  0  0  0  0  0
   -2.1867   -4.9081    2.8763 C   0  0  0  0  0  0  0  0  0  0  0  0
    4.6423   -0.4899   -0.0312 C   0  0  0  0  0  0  0  0  0  0  0  0
   -7.0627    1.1580    0.6221 C   0  0  0  0  0  0  0  0  0  0  0  0
   -5.9405   -0.0979    2.4540 C   0  0  0  0  0  0  0  0  0  0  0  0
   -7.2640    0.1455    1.7431 C   0  0  0  0  0  0  0  0  0  0  0  0
    1.2550   -2.4405    0.4309 H   0  0  0  0  0  0  0  0  0  0  0  0
   -3.6394    0.7170   -1.4175 H   0  0  0  0  0  0  0  0  0  0  0  0
   -4.0256   -0.9590   -1.0917 H   0  0  0  0  0  0  0  0  0  0  0  0
    0.7394    2.4875   -0.2247 H   0  0  0  0  0  0  0  0  0  0  0  0
   -1.7167   -5.1728    0.7729 H   0  0  0  0  0  0  0  0  0  0  0  0
   -0.3193   -5.1333    1.8498 H   0  0  0  0  0  0  0  0  0  0  0  0
    2.9947    1.4773   -0.0889 H   0  0  0  0  0  0  0  0  0  0  0  0
   -6.2869   -0.2082   -0.8470 H   0  0  0  0  0  0  0  0  0  0  0  0
   -5.8131    1.4767   -1.0810 H   0  0  0  0  0  0  0  0  0  0  0  0
   -3.9199   -0.6224    2.0335 H   0  0  0  0  0  0  0  0  0  0  0  0
   -5.1028   -1.5147    1.0634 H   0  0  0  0  0  0  0  0  0  0  0  0
   -3.1157   -4.3411    2.8056 H   0  0  0  0  0  0  0  0  0  0  0  0
   -2.4227   -5.9724    2.9769 H   0  0  0  0  0  0  0  0  0  0  0  0
   -1.6727   -4.5884    3.7874 H   0  0  0  0  0  0  0  0  0  0  0  0
    4.6302    0.0367   -0.9918 H   0  0  0  0  0  0  0  0  0  0  0  0
    4.8026    0.2043    0.7995 H   0  0  0  0  0  0  0  0  0  0  0  0
    5.4828   -1.1904   -0.0494 H   0  0  0  0  0  0  0  0  0  0  0  0
   -7.9957    1.2837    0.0669 H   0  0  0  0  0  0  0  0  0  0  0  0
   -6.8059    2.1349    1.0496 H   0  0  0  0  0  0  0  0  0  0  0  0
   -5.6300    0.8177    2.9732 H   0  0  0  0  0  0  0  0  0  0  0  0
   -6.0680   -0.8731    3.2176 H   0  0  0  0  0  0  0  0  0  0  0  0
   -8.0175    0.5063    2.4509 H   0  0  0  0  0  0  0  0  0  0  0  0
   -7.6375   -0.7980    1.3242 H   0  0  0  0  0  0  0  0  0  0  0  0
  1  2  1  0  0  0  0
  1  3  2  0  0  0  0
  1  4  1  0  0  0  0
  2  5  2  0  0  0  0
  2  6  1  0  0  0  0
  3  7  1  0  0  0  0
  3  8  1  0  0  0  0
  4  9  1  0  0  0  0
  4 10  2  0  0  0  0
  5 11  1  0  0  0  0
  5  7  1  0  0  0  0
  6 12  2  0  0  0  0
  6 24  1  0  0  0  0
  8 13  1  0  0  0  0
  8 25  1  0  0  0  0
  8 26  1  0  0  0  0
  9 14  1  0  0  0  0
 11 15  2  0  0  0  0
 11 27  1  0  0  0  0
 12 16  1  0  0  0  0
 12 15  1  0  0  0  0
 13 17  1  0  0  0  0
 13 18  1  0  0  0  0
 14 19  1  0  0  0  0
 14 28  1  0  0  0  0
 14 29  1  0  0  0  0
 15 30  1  0  0  0  0
 16 20  1  0  0  0  0
 17 21  1  0  0  0  0
 17 31  1  0  0  0  0
 17 32  1  0  0  0  0
 18 22  1  0  0  0  0
 18 33  1  0  0  0  0
 18 34  1  0  0  0  0
 19 35  1  0  0  0  0
 19 36  1  0  0  0  0
 19 37  1  0  0  0  0
 20 38  1  0  0  0  0
 20 39  1  0  0  0  0
 20 40  1  0  0  0  0
 21 23  1  0  0  0  0
 21 41  1  0  0  0  0
 21 42  1  0  0  0  0
 22 23  1  0  0  0  0
 22 43  1  0  0  0  0
 22 44  1  0  0  0  0
 23 45  1  0  0  0  0
 23 46  1  0  0  0  0
M  END
>  <Mol_ID>
8393

>  <Formula>
C18H23NO4

>  <MolWeight>
317.37952

>  <Cat>
P2119

>  <Name>
WAY-299845-A

>  <Synonyms>
N/A

>  <Target>
others

>  <Form>
free base

>  <CAS>
40963-83-5

>  <URL>
N/A

$$$$
