WAY-313170
 OpenBabel08302521403D

 43 46  0  0  0  0  0  0  0  0999 V2000
    0.3811    0.3118    0.1280 C   0  0  0  0  0  0  0  0  0  0  0  0
   -1.0152    0.2881   -0.0132 C   0  0  0  0  0  0  0  0  0  0  0  0
    0.9639   -0.9198   -0.1037 C   0  0  0  0  0  0  0  0  0  0  0  0
    1.2213    1.4229    0.4533 C   0  0  0  0  0  0  0  0  0  0  0  0
   -1.4881   -0.9796   -0.1848 C   0  0  0  0  0  0  0  0  0  0  0  0
   -2.1035    1.2932    0.0162 C   0  0  0  0  0  0  0  0  0  0  0  0
    2.3064   -1.1840   -0.1237 N   0  0  0  0  0  0  0  0  0  0  0  0
   -0.2670   -2.1286   -0.3316 S   0  0  0  0  0  0  0  0  0  0  0  0
    2.5906    1.1498    0.3965 N   0  0  0  0  0  0  0  0  0  0  0  0
    0.7441    2.5047    0.7838 O   0  0  0  0  0  0  0  0  0  0  0  0
   -2.9746   -1.0452   -0.2177 C   0  0  0  0  0  0  0  0  0  0  0  0
   -3.3573    0.4050    0.2468 C   0  0  0  0  0  0  0  0  0  0  0  0
    3.0714   -0.1537    0.1198 C   0  0  0  0  0  0  0  0  0  0  0  0
    3.4261    2.3138    0.7137 C   0  0  0  0  0  0  0  0  0  0  0  0
    4.8238   -0.3359    0.1495 S   0  0  0  0  0  0  0  0  0  0  0  0
    3.5241    2.5656    2.2151 C   0  0  0  0  0  0  0  0  0  0  0  0
    5.1955   -1.8052   -0.8438 C   0  0  0  0  0  0  0  0  0  0  0  0
    6.6959   -1.8441   -1.1716 C   0  0  0  0  0  0  0  0  0  0  0  0
    7.7186   -2.1346   -0.1046 C   0  0  0  0  0  0  0  0  0  0  0  0
    7.0974   -1.6082   -2.3149 O   0  0  0  0  0  0  0  0  0  0  0  0
    7.3708   -2.6490    1.1474 C   0  0  0  0  0  0  0  0  0  0  0  0
    9.0715   -1.8461   -0.3641 C   0  0  0  0  0  0  0  0  0  0  0  0
    8.3409   -2.8013    2.1456 C   0  0  0  0  0  0  0  0  0  0  0  0
   10.0386   -1.9940    0.6371 C   0  0  0  0  0  0  0  0  0  0  0  0
    9.6710   -2.4501    1.8999 C   0  0  0  0  0  0  0  0  0  0  0  0
   -2.1688    1.7978   -0.9551 H   0  0  0  0  0  0  0  0  0  0  0  0
   -1.9869    2.0446    0.8011 H   0  0  0  0  0  0  0  0  0  0  0  0
   -3.3456   -1.2247   -1.2308 H   0  0  0  0  0  0  0  0  0  0  0  0
   -3.3946   -1.7840    0.4702 H   0  0  0  0  0  0  0  0  0  0  0  0
   -4.2391    0.7958   -0.2719 H   0  0  0  0  0  0  0  0  0  0  0  0
   -3.5881    0.3963    1.3205 H   0  0  0  0  0  0  0  0  0  0  0  0
    4.4250    2.2293    0.2797 H   0  0  0  0  0  0  0  0  0  0  0  0
    2.9729    3.1952    0.2427 H   0  0  0  0  0  0  0  0  0  0  0  0
    4.0068    1.7296    2.7292 H   0  0  0  0  0  0  0  0  0  0  0  0
    4.1062    3.4728    2.4032 H   0  0  0  0  0  0  0  0  0  0  0  0
    2.5377    2.7075    2.6713 H   0  0  0  0  0  0  0  0  0  0  0  0
    4.8987   -2.7255   -0.3360 H   0  0  0  0  0  0  0  0  0  0  0  0
    4.6568   -1.7672   -1.7972 H   0  0  0  0  0  0  0  0  0  0  0  0
    6.3523   -2.9438    1.3789 H   0  0  0  0  0  0  0  0  0  0  0  0
    9.3822   -1.4879   -1.3439 H   0  0  0  0  0  0  0  0  0  0  0  0
    8.0584   -3.1843    3.1240 H   0  0  0  0  0  0  0  0  0  0  0  0
   11.0770   -1.7406    0.4336 H   0  0  0  0  0  0  0  0  0  0  0  0
   10.4112   -2.5344    2.6891 H   0  0  0  0  0  0  0  0  0  0  0  0
  1  2  1  0  0  0  0
  1  3  2  0  0  0  0
  1  4  1  0  0  0  0
  2  5  2  0  0  0  0
  2  6  1  0  0  0  0
  3  7  1  0  0  0  0
  3  8  1  0  0  0  0
  4  9  1  0  0  0  0
  4 10  2  0  0  0  0
  5 11  1  0  0  0  0
  5  8  1  0  0  0  0
  6 12  1  0  0  0  0
  6 26  1  0  0  0  0
  6 27  1  0  0  0  0
  7 13  2  0  0  0  0
  9 14  1  0  0  0  0
  9 13  1  0  0  0  0
 11 12  1  0  0  0  0
 11 28  1  0  0  0  0
 11 29  1  0  0  0  0
 12 30  1  0  0  0  0
 12 31  1  0  0  0  0
 13 15  1  0  0  0  0
 14 16  1  0  0  0  0
 14 32  1  0  0  0  0
 14 33  1  0  0  0  0
 15 17  1  0  0  0  0
 16 34  1  0  0  0  0
 16 35  1  0  0  0  0
 16 36  1  0  0  0  0
 17 18  1  0  0  0  0
 17 37  1  0  0  0  0
 17 38  1  0  0  0  0
 18 19  1  0  0  0  0
 18 20  2  0  0  0  0
 19 21  2  0  0  0  0
 19 22  1  0  0  0  0
 21 23  1  0  0  0  0
 21 39  1  0  0  0  0
 22 24  2  0  0  0  0
 22 40  1  0  0  0  0
 23 25  2  0  0  0  0
 23 41  1  0  0  0  0
 24 25  1  0  0  0  0
 24 42  1  0  0  0  0
 25 43  1  0  0  0  0
M  END
>  <Mol_ID>
8318

>  <Formula>
C19H17ClN2O2S2

>  <MolWeight>
404.93348

>  <Cat>
P2243

>  <Name>
WAY-313170

>  <Synonyms>
N/A

>  <Target>
hedgehog

>  <Form>
free base

>  <CAS>
314041-83-3

>  <URL>
N/A

$$$$
