WAY-330022
 OpenBabel08302521443D

 43 45  0  0  0  0  0  0  0  0999 V2000
   -1.1098   -0.0129   -0.0440 O   0  0  0  0  0  0  0  0  0  0  0  0
   -0.2643   -1.0925    0.0333 C   0  0  0  0  0  0  0  0  0  0  0  0
    0.9991   -0.7276    0.1401 N   0  0  0  0  0  0  0  0  0  0  0  0
    1.0267    0.6458    0.1402 N   0  0  0  0  0  0  0  0  0  0  0  0
   -0.2237    1.0390    0.0253 C   0  0  0  0  0  0  0  0  0  0  0  0
   -1.9817    4.3650    3.0312 C   0  0  0  0  0  0  0  0  0  0  0  0
   -1.8741    3.8918    1.6219 C   0  0  0  0  0  0  0  0  0  0  0  0
   -4.5604   -4.1341   -0.2968 N   0  0  0  0  0  0  0  0  0  0  0  0
   -3.1804   -4.0608   -0.1513 C   0  0  0  0  0  0  0  0  0  0  0  0
   -0.9648    2.8965    1.3481 N   0  0  0  0  0  0  0  0  0  0  0  0
   -0.7481   -2.7555   -0.0022 S   0  0  0  0  0  0  0  0  0  0  0  0
   -1.2208    3.8328    4.0743 C   0  0  0  0  0  0  0  0  0  0  0  0
   -2.9091    5.3769    3.3253 C   0  0  0  0  0  0  0  0  0  0  0  0
   -2.5522   -2.6608   -0.1516 C   0  0  0  0  0  0  0  0  0  0  0  0
   -2.5877    4.3807    0.7522 O   0  0  0  0  0  0  0  0  0  0  0  0
   -2.5147   -5.0854   -0.0031 O   0  0  0  0  0  0  0  0  0  0  0  0
   -0.7563    2.4209   -0.0060 C   0  0  0  0  0  0  0  0  0  0  0  0
   -7.2868   -4.3320    0.4945 O   0  0  0  0  0  0  0  0  0  0  0  0
   -0.3174    2.8661    3.8497 F   0  0  0  0  0  0  0  0  0  0  0  0
   -5.2310   -5.4404   -0.2424 C   0  0  0  0  0  0  0  0  0  0  0  0
   -5.4809   -3.0157   -0.5110 C   0  0  0  0  0  0  0  0  0  0  0  0
   -2.3025    5.2905    5.6657 C   0  0  0  0  0  0  0  0  0  0  0  0
   -3.0681    5.8364    4.6363 C   0  0  0  0  0  0  0  0  0  0  0  0
   -1.3764    4.2878    5.3837 C   0  0  0  0  0  0  0  0  0  0  0  0
   -6.6148   -3.0633    0.5205 C   0  0  0  0  0  0  0  0  0  0  0  0
   -6.3719   -5.4047    0.7804 C   0  0  0  0  0  0  0  0  0  0  0  0
   -0.2899    2.6275    2.0586 H   0  0  0  0  0  0  0  0  0  0  0  0
   -3.5174    5.8104    2.5327 H   0  0  0  0  0  0  0  0  0  0  0  0
   -2.9544   -2.1034    0.7007 H   0  0  0  0  0  0  0  0  0  0  0  0
   -2.8028   -2.1559   -1.0880 H   0  0  0  0  0  0  0  0  0  0  0  0
   -0.0301    3.0923   -0.4780 H   0  0  0  0  0  0  0  0  0  0  0  0
   -1.6880    2.4734   -0.5771 H   0  0  0  0  0  0  0  0  0  0  0  0
   -5.6344   -5.6293   -1.2442 H   0  0  0  0  0  0  0  0  0  0  0  0
   -4.5351   -6.2481    0.0014 H   0  0  0  0  0  0  0  0  0  0  0  0
   -5.8923   -3.1417   -1.5195 H   0  0  0  0  0  0  0  0  0  0  0  0
   -4.9718   -2.0512   -0.4704 H   0  0  0  0  0  0  0  0  0  0  0  0
   -2.4281    5.6461    6.6860 H   0  0  0  0  0  0  0  0  0  0  0  0
   -3.7929    6.6187    4.8522 H   0  0  0  0  0  0  0  0  0  0  0  0
   -0.7745    3.8542    6.1770 H   0  0  0  0  0  0  0  0  0  0  0  0
   -6.2307   -2.8851    1.5322 H   0  0  0  0  0  0  0  0  0  0  0  0
   -7.3548   -2.2874    0.2994 H   0  0  0  0  0  0  0  0  0  0  0  0
   -6.9361   -6.3422    0.7502 H   0  0  0  0  0  0  0  0  0  0  0  0
   -5.9843   -5.2770    1.7984 H   0  0  0  0  0  0  0  0  0  0  0  0
  2  1  1  0  0  0  0
  3  2  2  0  0  0  0
  4  5  2  0  0  0  0
  4  3  1  0  0  0  0
  5  1  1  0  0  0  0
  6  7  1  0  0  0  0
  7 10  1  0  0  0  0
  8  9  1  0  0  0  0
  9 14  1  0  0  0  0
 10 17  1  0  0  0  0
 10 27  1  0  0  0  0
 11  2  1  0  0  0  0
 12  6  2  0  0  0  0
 13  6  1  0  0  0  0
 13 28  1  0  0  0  0
 14 11  1  0  0  0  0
 14 29  1  0  0  0  0
 14 30  1  0  0  0  0
 15  7  2  0  0  0  0
 16  9  2  0  0  0  0
 17  5  1  0  0  0  0
 17 31  1  0  0  0  0
 17 32  1  0  0  0  0
 18 25  1  0  0  0  0
 18 26  1  0  0  0  0
 19 12  1  0  0  0  0
 20  8  1  0  0  0  0
 20 33  1  0  0  0  0
 20 34  1  0  0  0  0
 21  8  1  0  0  0  0
 21 35  1  0  0  0  0
 21 36  1  0  0  0  0
 22 23  1  0  0  0  0
 22 24  2  0  0  0  0
 22 37  1  0  0  0  0
 23 13  2  0  0  0  0
 23 38  1  0  0  0  0
 24 12  1  0  0  0  0
 24 39  1  0  0  0  0
 25 21  1  0  0  0  0
 25 40  1  0  0  0  0
 25 41  1  0  0  0  0
 26 20  1  0  0  0  0
 26 42  1  0  0  0  0
 26 43  1  0  0  0  0
M  END
>  <Mol_ID>
9149

>  <Formula>
C16H16ClFN4O4S

>  <MolWeight>
414.8390432

>  <Cat>
P2601

>  <Name>
WAY-330022

>  <Synonyms>
N/A

>  <Target>
Mcl-1

>  <Form>
free base

>  <CAS>
940850-10-2

>  <URL>
N/A

$$$$
