WAY-659053
 OpenBabel08302521433D

 40 43  0  0  0  0  0  0  0  0999 V2000
   -1.2645   -2.5508    0.0257 C   0  0  0  0  0  0  0  0  0  0  0  0
   -1.9370   -3.5854   -0.3977 N   0  0  0  0  0  0  0  0  0  0  0  0
    2.0051   -0.6417    0.1252 N   0  0  0  0  0  0  0  0  0  0  0  0
    2.8985   -1.5859    0.0565 C   0  0  0  0  0  0  0  0  0  0  0  0
    2.4197    0.6452    0.2440 N   0  0  0  0  0  0  0  0  0  0  0  0
   -3.2946   -3.3241   -0.3337 C   0  0  0  0  0  0  0  0  0  0  0  0
    0.0864   -2.3838    0.1128 N   0  0  0  0  0  0  0  0  0  0  0  0
    3.7199    1.0685    0.3371 C   0  0  0  0  0  0  0  0  0  0  0  0
    2.4485   -3.0304   -0.0529 C   0  0  0  0  0  0  0  0  0  0  0  0
    0.9775   -3.3944   -0.1279 C   0  0  0  0  0  0  0  0  0  0  0  0
    4.3603   -1.3059    0.1156 C   0  0  0  0  0  0  0  0  0  0  0  0
   -2.1830   -1.2078    0.5397 S   0  0  0  0  0  0  0  0  0  0  0  0
    4.7511    0.0205    0.2796 C   0  0  0  0  0  0  0  0  0  0  0  0
   -3.6198   -2.0933    0.2070 C   0  0  0  0  0  0  0  0  0  0  0  0
    4.0181    2.2515    0.4525 O   0  0  0  0  0  0  0  0  0  0  0  0
   -4.2593   -4.3176   -0.7869 C   0  0  0  0  0  0  0  0  0  0  0  0
    0.6878   -4.5723   -0.3427 O   0  0  0  0  0  0  0  0  0  0  0  0
    5.3387   -2.3059    0.0340 C   0  0  0  0  0  0  0  0  0  0  0  0
    6.1052    0.3581    0.3961 C   0  0  0  0  0  0  0  0  0  0  0  0
   -3.9039   -5.6743   -0.7579 C   0  0  0  0  0  0  0  0  0  0  0  0
   -5.5179   -3.9598   -1.2890 C   0  0  0  0  0  0  0  0  0  0  0  0
    6.6920   -1.9696    0.1476 C   0  0  0  0  0  0  0  0  0  0  0  0
    7.0743   -0.6420    0.3372 C   0  0  0  0  0  0  0  0  0  0  0  0
   -6.4063   -4.9425   -1.7363 C   0  0  0  0  0  0  0  0  0  0  0  0
   -4.7937   -6.6550   -1.1990 C   0  0  0  0  0  0  0  0  0  0  0  0
   -6.0462   -6.2884   -1.6858 C   0  0  0  0  0  0  0  0  0  0  0  0
    1.7028    1.3629    0.2751 H   0  0  0  0  0  0  0  0  0  0  0  0
    0.4260   -1.4545    0.3418 H   0  0  0  0  0  0  0  0  0  0  0  0
    2.8478   -3.5646    0.8192 H   0  0  0  0  0  0  0  0  0  0  0  0
    2.9058   -3.4473   -0.9589 H   0  0  0  0  0  0  0  0  0  0  0  0
   -4.5932   -1.6730    0.4134 H   0  0  0  0  0  0  0  0  0  0  0  0
    5.0832   -3.3517   -0.1132 H   0  0  0  0  0  0  0  0  0  0  0  0
    6.4033    1.3956    0.5368 H   0  0  0  0  0  0  0  0  0  0  0  0
   -2.9201   -5.9709   -0.3948 H   0  0  0  0  0  0  0  0  0  0  0  0
   -5.8148   -2.9173   -1.3647 H   0  0  0  0  0  0  0  0  0  0  0  0
    7.4515   -2.7474    0.0933 H   0  0  0  0  0  0  0  0  0  0  0  0
    8.1266   -0.3855    0.4379 H   0  0  0  0  0  0  0  0  0  0  0  0
   -7.3764   -4.6566   -2.1345 H   0  0  0  0  0  0  0  0  0  0  0  0
   -4.5011   -7.7010   -1.1682 H   0  0  0  0  0  0  0  0  0  0  0  0
   -6.7360   -7.0514   -2.0356 H   0  0  0  0  0  0  0  0  0  0  0  0
  2  1  2  0  0  0  0
  3  4  2  0  0  0  0
  4  9  1  0  0  0  0
  5  3  1  0  0  0  0
  5 27  1  0  0  0  0
  6  2  1  0  0  0  0
  7  1  1  0  0  0  0
  7 28  1  0  0  0  0
  8 13  1  0  0  0  0
  8  5  1  0  0  0  0
  9 10  1  0  0  0  0
  9 29  1  0  0  0  0
  9 30  1  0  0  0  0
 10  7  1  0  0  0  0
 11  4  1  0  0  0  0
 12  1  1  0  0  0  0
 13 11  2  0  0  0  0
 14 12  1  0  0  0  0
 14  6  2  0  0  0  0
 14 31  1  0  0  0  0
 15  8  2  0  0  0  0
 16  6  1  0  0  0  0
 17 10  2  0  0  0  0
 18 11  1  0  0  0  0
 18 32  1  0  0  0  0
 19 13  1  0  0  0  0
 19 33  1  0  0  0  0
 20 16  2  0  0  0  0
 20 34  1  0  0  0  0
 21 16  1  0  0  0  0
 21 35  1  0  0  0  0
 22 18  2  0  0  0  0
 22 36  1  0  0  0  0
 23 22  1  0  0  0  0
 23 19  2  0  0  0  0
 23 37  1  0  0  0  0
 24 21  2  0  0  0  0
 24 38  1  0  0  0  0
 25 20  1  0  0  0  0
 25 39  1  0  0  0  0
 26 24  1  0  0  0  0
 26 25  2  0  0  0  0
 26 40  1  0  0  0  0
M  END
>  <Mol_ID>
8830

>  <Formula>
C19H14N4O2S

>  <MolWeight>
362.40506

>  <Cat>
P3181

>  <Name>
WAY-659053

>  <Synonyms>
N/A

>  <Target>
Others

>  <Form>
free base

>  <CAS>
848833-24-9

>  <URL>
N/A

$$$$
