WAY-324708
 OpenBabel08302521423D

 39 40  0  0  0  0  0  0  0  0999 V2000
    0.9680    0.0376    0.0070 C   0  0  0  0  0  0  0  0  0  0  0  0
    0.1209   -1.2345    0.2002 C   0  0  3  0  0  0  0  0  0  0  0  0
    0.6013   -2.2529   -0.8652 C   0  0  3  0  0  0  0  0  0  0  0  0
    0.2713   -3.6996   -0.5631 C   0  0  0  0  0  0  0  0  0  0  0  0
   -0.4223    7.7744    0.6472 C   0  0  0  0  0  0  0  0  0  0  0  0
    0.3604    1.2413   -0.2716 N   0  0  0  0  0  0  0  0  0  0  0  0
    0.0125    6.4045    0.2723 C   0  0  0  0  0  0  0  0  0  0  0  0
    2.1973   -0.0530    0.0584 O   0  0  0  0  0  0  0  0  0  0  0  0
    0.0871   -4.5905   -1.3768 O   0  0  0  0  0  0  0  0  0  0  0  0
   -1.1633    8.0592    1.5708 O   0  0  0  0  0  0  0  0  0  0  0  0
   -0.4887    5.3222    1.0072 C   0  0  0  0  0  0  0  0  0  0  0  0
    0.8946    6.1588   -0.7823 C   0  0  0  0  0  0  0  0  0  0  0  0
   -2.0547   -1.1818   -1.1368 C   0  0  0  0  0  0  0  0  0  0  0  0
   -1.3825   -1.4962   -2.2524 C   0  0  0  0  0  0  0  0  0  0  0  0
    1.1760    2.3443   -0.7678 C   0  0  0  0  0  0  0  0  0  0  0  0
    0.3395   -4.0146    0.7480 O   0  0  0  0  0  0  0  0  0  0  0  0
    0.0680    8.7277   -0.1672 O   0  0  0  0  0  0  0  0  0  0  0  0
    0.7175    3.7415   -0.4007 C   0  0  0  0  0  0  0  0  0  0  0  0
   -0.1315    4.0048    0.6792 C   0  0  0  0  0  0  0  0  0  0  0  0
    1.2434    4.8392   -1.1101 C   0  0  0  0  0  0  0  0  0  0  0  0
    0.0760   -1.8530   -2.2545 C   0  0  0  0  0  0  0  0  0  0  0  0
   -1.4107   -1.1099    0.2178 C   0  0  0  0  0  0  0  0  0  0  0  0
    0.4070   -1.5784    1.2042 H   0  0  0  0  0  0  0  0  0  0  0  0
    1.6988   -2.2471   -0.9142 H   0  0  0  0  0  0  0  0  0  0  0  0
   -0.6200    1.2532   -0.5200 H   0  0  0  0  0  0  0  0  0  0  0  0
   -1.1582    5.5009    1.8468 H   0  0  0  0  0  0  0  0  0  0  0  0
    1.3213    6.9814   -1.3519 H   0  0  0  0  0  0  0  0  0  0  0  0
   -3.1248   -0.9894   -1.1947 H   0  0  0  0  0  0  0  0  0  0  0  0
   -1.9027   -1.5317   -3.2073 H   0  0  0  0  0  0  0  0  0  0  0  0
    2.2153    2.2319   -0.4404 H   0  0  0  0  0  0  0  0  0  0  0  0
    1.1601    2.2498   -1.8612 H   0  0  0  0  0  0  0  0  0  0  0  0
    0.2434   -4.9919    0.7524 H   0  0  0  0  0  0  0  0  0  0  0  0
   -0.3227    9.5567    0.1828 H   0  0  0  0  0  0  0  0  0  0  0  0
   -0.5147    3.1936    1.2935 H   0  0  0  0  0  0  0  0  0  0  0  0
    1.9512    4.6765   -1.9233 H   0  0  0  0  0  0  0  0  0  0  0  0
    0.6322   -0.9807   -2.6199 H   0  0  0  0  0  0  0  0  0  0  0  0
    0.2495   -2.6557   -2.9800 H   0  0  0  0  0  0  0  0  0  0  0  0
   -1.8240   -1.9396    0.8072 H   0  0  0  0  0  0  0  0  0  0  0  0
   -1.7266   -0.1913    0.7237 H   0  0  0  0  0  0  0  0  0  0  0  0
  2  1  1  0  0  0  0
  2 23  1  0  0  0  0
  3  2  1  0  0  0  0
  3 24  1  0  0  0  0
  4  3  1  0  0  0  0
  5  7  1  0  0  0  0
  6  1  1  0  0  0  0
  6 25  1  0  0  0  0
  7 12  2  0  0  0  0
  7 11  1  0  0  0  0
  8  1  2  0  0  0  0
  9  4  2  0  0  0  0
 10  5  2  0  0  0  0
 11 19  2  0  0  0  0
 11 26  1  0  0  0  0
 12 20  1  0  0  0  0
 12 27  1  0  0  0  0
 13 22  1  0  0  0  0
 13 28  1  0  0  0  0
 14 13  2  0  0  0  0
 14 29  1  0  0  0  0
 15  6  1  0  0  0  0
 15 30  1  0  0  0  0
 15 31  1  0  0  0  0
 16  4  1  0  0  0  0
 16 32  1  0  0  0  0
 17  5  1  0  0  0  0
 17 33  1  0  0  0  0
 18 15  1  0  0  0  0
 19 18  1  0  0  0  0
 19 34  1  0  0  0  0
 20 18  2  0  0  0  0
 20 35  1  0  0  0  0
 21  3  1  0  0  0  0
 21 14  1  0  0  0  0
 21 36  1  0  0  0  0
 21 37  1  0  0  0  0
 22  2  1  0  0  0  0
 22 38  1  0  0  0  0
 22 39  1  0  0  0  0
M  END
>  <Mol_ID>
8652

>  <Formula>
C16H17NO5

>  <MolWeight>
303.30988

>  <Cat>
P2342

>  <Name>
WAY-324708

>  <Synonyms>
N/A

>  <Target>
interleukin 15

>  <Form>
free base

>  <CAS>
351465-72-0

>  <URL>
N/A

$$$$
