WAY-330266
 OpenBabel08302521443D

 50 52  0  0  0  0  0  0  0  0999 V2000
    1.7413   -0.5165    0.8478 C   0  0  0  0  0  0  0  0  0  0  0  0
    3.6017    0.3283   -0.0018 C   0  0  0  0  0  0  0  0  0  0  0  0
    3.1069   -0.7096    0.7536 O   0  0  0  0  0  0  0  0  0  0  0  0
    0.8891   -1.3147    1.5315 N   0  0  0  0  0  0  0  0  0  0  0  0
    2.5779    1.1607   -0.3874 C   0  0  0  0  0  0  0  0  0  0  0  0
    1.3906    0.6059    0.1071 C   0  0  0  0  0  0  0  0  0  0  0  0
    4.9994    0.5065   -0.3208 C   0  0  0  0  0  0  0  0  0  0  0  0
   -0.4214   -0.9877    1.3950 C   0  0  0  0  0  0  0  0  0  0  0  0
    0.0454    0.9385   -0.0066 C   0  0  0  0  0  0  0  0  0  0  0  0
   -0.8757    0.1068    0.6165 C   0  0  0  0  0  0  0  0  0  0  0  0
   -1.4201   -1.7526    2.0089 C   0  0  0  0  0  0  0  0  0  0  0  0
    5.4640    1.6253   -0.5507 O   0  0  0  0  0  0  0  0  0  0  0  0
    5.7690   -0.6198   -0.4703 N   0  0  0  0  0  0  0  0  0  0  0  0
   -2.2350    0.3763    0.4325 C   0  0  0  0  0  0  0  0  0  0  0  0
   -2.7989   -1.5065    1.8142 C   0  0  0  0  0  0  0  0  0  0  0  0
    7.9999   -1.6833    1.2508 N   0  0  0  0  0  0  0  0  0  0  0  0
   -3.1937   -0.4361    1.0147 C   0  0  0  0  0  0  0  0  0  0  0  0
    7.1755   -0.4874   -0.8162 C   0  0  0  0  0  0  0  0  0  0  0  0
    8.0668   -0.4488    0.4353 C   0  0  0  0  0  0  0  0  0  0  0  0
    8.5384   -2.8411    0.5150 C   0  0  0  0  0  0  0  0  0  0  0  0
    8.7148   -1.4583    2.5117 C   0  0  0  0  0  0  0  0  0  0  0  0
   -3.8469   -2.3750    2.4479 C   0  0  0  0  0  0  0  0  0  0  0  0
    8.4347   -4.1807    1.2537 C   0  0  0  0  0  0  0  0  0  0  0  0
    6.9994   -4.5290    1.6535 C   0  0  0  0  0  0  0  0  0  0  0  0
    6.9533   -5.8413    2.4174 C   0  0  0  0  0  0  0  0  0  0  0  0
    2.6977    2.0474   -0.9934 H   0  0  0  0  0  0  0  0  0  0  0  0
   -0.2578    1.7994   -0.5923 H   0  0  0  0  0  0  0  0  0  0  0  0
   -1.1157   -2.5830    2.6455 H   0  0  0  0  0  0  0  0  0  0  0  0
    5.4240   -1.5081   -0.1283 H   0  0  0  0  0  0  0  0  0  0  0  0
   -2.5567    1.2085   -0.1900 H   0  0  0  0  0  0  0  0  0  0  0  0
   -4.2455   -0.2290    0.8312 H   0  0  0  0  0  0  0  0  0  0  0  0
    7.4381   -1.3015   -1.4969 H   0  0  0  0  0  0  0  0  0  0  0  0
    7.3318    0.4386   -1.3831 H   0  0  0  0  0  0  0  0  0  0  0  0
    9.1023   -0.2356    0.1410 H   0  0  0  0  0  0  0  0  0  0  0  0
    7.7287    0.3980    1.0485 H   0  0  0  0  0  0  0  0  0  0  0  0
    7.9824   -2.9763   -0.4187 H   0  0  0  0  0  0  0  0  0  0  0  0
    9.5848   -2.6648    0.2351 H   0  0  0  0  0  0  0  0  0  0  0  0
    9.7825   -1.2722    2.3504 H   0  0  0  0  0  0  0  0  0  0  0  0
    8.2918   -0.6000    3.0463 H   0  0  0  0  0  0  0  0  0  0  0  0
    8.6073   -2.3088    3.1913 H   0  0  0  0  0  0  0  0  0  0  0  0
   -3.6699   -3.4266    2.2045 H   0  0  0  0  0  0  0  0  0  0  0  0
   -3.8524   -2.2403    3.5332 H   0  0  0  0  0  0  0  0  0  0  0  0
   -4.8470   -2.1206    2.0749 H   0  0  0  0  0  0  0  0  0  0  0  0
    8.8192   -4.9650    0.5891 H   0  0  0  0  0  0  0  0  0  0  0  0
    9.0874   -4.1826    2.1333 H   0  0  0  0  0  0  0  0  0  0  0  0
    6.5700   -3.7415    2.2826 H   0  0  0  0  0  0  0  0  0  0  0  0
    6.3717   -4.6051    0.7578 H   0  0  0  0  0  0  0  0  0  0  0  0
    7.3450   -6.6624    1.8092 H   0  0  0  0  0  0  0  0  0  0  0  0
    7.5488   -5.7770    3.3339 H   0  0  0  0  0  0  0  0  0  0  0  0
    5.9234   -6.0821    2.6971 H   0  0  0  0  0  0  0  0  0  0  0  0
  2  3  1  0  0  0  0
  3  1  1  0  0  0  0
  4  1  1  0  0  0  0
  5  6  1  0  0  0  0
  5  2  2  0  0  0  0
  5 26  1  0  0  0  0
  6  1  2  0  0  0  0
  7  2  1  0  0  0  0
  8  4  2  0  0  0  0
  8 10  1  0  0  0  0
  9  6  1  0  0  0  0
  9 27  1  0  0  0  0
 10  9  2  0  0  0  0
 11  8  1  0  0  0  0
 11 28  1  0  0  0  0
 12  7  2  0  0  0  0
 13  7  1  0  0  0  0
 13 29  1  0  0  0  0
 14 10  1  0  0  0  0
 14 30  1  0  0  0  0
 15 11  2  0  0  0  0
 15 17  1  0  0  0  0
 16 19  1  0  0  0  0
 17 14  2  0  0  0  0
 17 31  1  0  0  0  0
 18 13  1  0  0  0  0
 18 32  1  0  0  0  0
 18 33  1  0  0  0  0
 19 18  1  0  0  0  0
 19 34  1  0  0  0  0
 19 35  1  0  0  0  0
 20 16  1  0  0  0  0
 20 36  1  0  0  0  0
 20 37  1  0  0  0  0
 21 16  1  0  0  0  0
 21 38  1  0  0  0  0
 21 39  1  0  0  0  0
 21 40  1  0  0  0  0
 22 15  1  0  0  0  0
 22 41  1  0  0  0  0
 22 42  1  0  0  0  0
 22 43  1  0  0  0  0
 23 20  1  0  0  0  0
 23 44  1  0  0  0  0
 23 45  1  0  0  0  0
 24 23  1  0  0  0  0
 24 46  1  0  0  0  0
 24 47  1  0  0  0  0
 25 24  1  0  0  0  0
 25 48  1  0  0  0  0
 25 49  1  0  0  0  0
 25 50  1  0  0  0  0
M  END
>  <Mol_ID>
9151

>  <Formula>
C20H25N3O2

>  <MolWeight>
339.4314

>  <Cat>
P2603

>  <Name>
WAY-330266

>  <Synonyms>
N/A

>  <Target>
Anti-infection

>  <Form>
free base

>  <CAS>
956186-04-2

>  <URL>
N/A

$$$$
