WAY-310768
 OpenBabel08302521403D

 29 30  0  0  0  0  0  0  0  0999 V2000
   -0.1351   -1.2548   -0.1079 C   0  0  0  0  0  0  0  0  0  0  0  0
    0.6066   -0.6889   -1.1284 N   0  0  0  0  0  0  0  0  0  0  0  0
   -0.4323   -2.7167   -0.0047 C   0  0  0  0  0  0  0  0  0  0  0  0
   -0.4542   -0.3057    0.7508 N   0  0  0  0  0  0  0  0  0  0  0  0
    0.7520    0.6300   -0.7914 C   0  0  0  0  0  0  0  0  0  0  0  0
    1.0907   -1.3684   -2.3114 C   0  0  0  0  0  0  0  0  0  0  0  0
   -1.2134   -2.9456    1.1677 O   0  0  0  0  0  0  0  0  0  0  0  0
    0.1021    0.8739    0.3200 N   0  0  0  0  0  0  0  0  0  0  0  0
    1.6648    1.8070   -1.6693 S   0  0  0  0  0  0  0  0  0  0  0  0
    2.4948   -1.9226   -2.1406 C   0  0  0  0  0  0  0  0  0  0  0  0
   -1.4483   -4.2498    1.5084 C   0  0  0  0  0  0  0  0  0  0  0  0
   -0.6680   -5.3449    1.1287 C   0  0  0  0  0  0  0  0  0  0  0  0
   -2.5457   -4.4543    2.3503 C   0  0  0  0  0  0  0  0  0  0  0  0
   -0.9918   -6.6312    1.5754 C   0  0  0  0  0  0  0  0  0  0  0  0
   -2.8752   -5.7374    2.7940 C   0  0  0  0  0  0  0  0  0  0  0  0
   -2.0945   -6.8224    2.4040 C   0  0  0  0  0  0  0  0  0  0  0  0
   -2.5186   -8.5605    3.0101 Br  0  0  0  0  0  0  0  0  0  0  0  0
   -0.9974   -3.0520   -0.8822 H   0  0  0  0  0  0  0  0  0  0  0  0
    0.5292   -3.2358    0.0549 H   0  0  0  0  0  0  0  0  0  0  0  0
    0.3936   -2.1778   -2.5518 H   0  0  0  0  0  0  0  0  0  0  0  0
    1.0466   -0.6699   -3.1534 H   0  0  0  0  0  0  0  0  0  0  0  0
    2.2917    1.0266   -2.5556 H   0  0  0  0  0  0  0  0  0  0  0  0
    2.5257   -2.6843   -1.3547 H   0  0  0  0  0  0  0  0  0  0  0  0
    2.8351   -2.3849   -3.0728 H   0  0  0  0  0  0  0  0  0  0  0  0
    3.2084   -1.1380   -1.8698 H   0  0  0  0  0  0  0  0  0  0  0  0
    0.2146   -5.2403    0.5097 H   0  0  0  0  0  0  0  0  0  0  0  0
   -3.1493   -3.6055    2.6640 H   0  0  0  0  0  0  0  0  0  0  0  0
   -0.3674   -7.4710    1.2827 H   0  0  0  0  0  0  0  0  0  0  0  0
   -3.7342   -5.8768    3.4462 H   0  0  0  0  0  0  0  0  0  0  0  0
  1  2  1  0  0  0  0
  1  3  1  0  0  0  0
  1  4  2  0  0  0  0
  2  5  1  0  0  0  0
  2  6  1  0  0  0  0
  3  7  1  0  0  0  0
  3 18  1  0  0  0  0
  3 19  1  0  0  0  0
  4  8  1  0  0  0  0
  5  9  1  0  0  0  0
  5  8  2  0  0  0  0
  6 10  1  0  0  0  0
  6 20  1  0  0  0  0
  6 21  1  0  0  0  0
  7 11  1  0  0  0  0
  9 22  1  0  0  0  0
 10 23  1  0  0  0  0
 10 24  1  0  0  0  0
 10 25  1  0  0  0  0
 11 12  2  0  0  0  0
 11 13  1  0  0  0  0
 12 14  1  0  0  0  0
 12 26  1  0  0  0  0
 13 15  2  0  0  0  0
 13 27  1  0  0  0  0
 14 16  2  0  0  0  0
 14 28  1  0  0  0  0
 15 16  1  0  0  0  0
 15 29  1  0  0  0  0
 16 17  1  0  0  0  0
M  END
>  <Mol_ID>
8298

>  <Formula>
C11H12BrN3OS

>  <MolWeight>
314.20148

>  <Cat>
P2187

>  <Name>
WAY-310768

>  <Synonyms>
N/A

>  <Target>
MtSk

>  <Form>
free base

>  <CAS>
491647-35-9

>  <URL>
N/A

$$$$
