WAY-299775
 OpenBabel08302521353D

 41 43  0  0  0  0  0  0  0  0999 V2000
    0.9128   -0.1939   -0.1352 N   0  0  0  0  0  0  0  0  0  0  0  0
    2.0819   -0.9554   -1.0997 S   0  0  0  0  0  0  0  0  0  0  0  0
    2.7076    0.0920   -1.8789 O   0  0  0  0  0  0  0  0  0  0  0  0
    2.8648   -1.8673   -0.2922 O   0  0  0  0  0  0  0  0  0  0  0  0
   -1.9856   -3.4908    3.5303 C   0  0  0  0  0  0  0  0  0  0  0  0
   -3.3619   -3.5925    3.4168 N   0  0  0  0  0  0  0  0  0  0  0  0
   -1.2889   -4.0480    4.3734 O   0  0  0  0  0  0  0  0  0  0  0  0
    0.1497   -0.9930    0.7600 C   0  0  0  0  0  0  0  0  0  0  0  0
    0.6638   -1.2639    2.0246 C   0  0  0  0  0  0  0  0  0  0  0  0
   -1.0680   -1.5504    0.3662 C   0  0  0  0  0  0  0  0  0  0  0  0
   -0.0564   -2.0681    2.9100 C   0  0  0  0  0  0  0  0  0  0  0  0
   -1.7818   -2.3771    1.2443 C   0  0  0  0  0  0  0  0  0  0  0  0
   -1.2887   -2.6238    2.5324 C   0  0  0  0  0  0  0  0  0  0  0  0
    1.0869   -1.9187   -2.2186 C   0  0  0  0  0  0  0  0  0  0  0  0
    0.6797   -1.3515   -3.4328 C   0  0  0  0  0  0  0  0  0  0  0  0
    0.7309   -3.2282   -1.8887 C   0  0  0  0  0  0  0  0  0  0  0  0
   -0.1223   -2.0918   -4.3010 C   0  0  0  0  0  0  0  0  0  0  0  0
   -0.0811   -3.9578   -2.7578 C   0  0  0  0  0  0  0  0  0  0  0  0
   -0.5083   -3.3893   -3.9593 C   0  0  0  0  0  0  0  0  0  0  0  0
   -4.2152   -4.3142    4.2852 C   0  0  0  0  0  0  0  0  0  0  0  0
   -3.8152   -4.7921    5.5359 C   0  0  0  0  0  0  0  0  0  0  0  0
   -5.5308   -4.5494    3.8654 C   0  0  0  0  0  0  0  0  0  0  0  0
   -4.6999   -5.5147    6.3415 C   0  0  0  0  0  0  0  0  0  0  0  0
   -6.4112   -5.2879    4.6640 C   0  0  0  0  0  0  0  0  0  0  0  0
   -5.9944   -5.7722    5.9015 C   0  0  0  0  0  0  0  0  0  0  0  0
    0.4086    0.5190   -0.6595 H   0  0  0  0  0  0  0  0  0  0  0  0
   -3.8179   -3.1396    2.6387 H   0  0  0  0  0  0  0  0  0  0  0  0
    1.6222   -0.8511    2.3314 H   0  0  0  0  0  0  0  0  0  0  0  0
   -1.4574   -1.3785   -0.6344 H   0  0  0  0  0  0  0  0  0  0  0  0
    0.3541   -2.2678    3.8990 H   0  0  0  0  0  0  0  0  0  0  0  0
   -2.6942   -2.8429    0.8858 H   0  0  0  0  0  0  0  0  0  0  0  0
    0.9845   -0.3447   -3.7109 H   0  0  0  0  0  0  0  0  0  0  0  0
    1.0631   -3.6762   -0.9539 H   0  0  0  0  0  0  0  0  0  0  0  0
   -0.4421   -1.6614   -5.2473 H   0  0  0  0  0  0  0  0  0  0  0  0
   -0.3783   -4.9724   -2.5012 H   0  0  0  0  0  0  0  0  0  0  0  0
   -1.1340   -3.9640   -4.6387 H   0  0  0  0  0  0  0  0  0  0  0  0
   -2.8208   -4.6012    5.9266 H   0  0  0  0  0  0  0  0  0  0  0  0
   -5.8818   -4.1927    2.9015 H   0  0  0  0  0  0  0  0  0  0  0  0
   -4.3682   -5.8756    7.3118 H   0  0  0  0  0  0  0  0  0  0  0  0
   -7.4207   -5.4925    4.3172 H   0  0  0  0  0  0  0  0  0  0  0  0
   -6.6739   -6.3483    6.5236 H   0  0  0  0  0  0  0  0  0  0  0  0
  1  2  1  0  0  0  0
  1  8  1  0  0  0  0
  1 26  1  0  0  0  0
  2  3  2  0  0  0  0
  2  4  2  0  0  0  0
  2 14  1  0  0  0  0
  5  6  1  0  0  0  0
  5  7  2  0  0  0  0
  5 13  1  0  0  0  0
  6 20  1  0  0  0  0
  6 27  1  0  0  0  0
  8  9  2  0  0  0  0
  8 10  1  0  0  0  0
  9 11  1  0  0  0  0
  9 28  1  0  0  0  0
 10 12  2  0  0  0  0
 10 29  1  0  0  0  0
 11 13  2  0  0  0  0
 11 30  1  0  0  0  0
 12 13  1  0  0  0  0
 12 31  1  0  0  0  0
 14 15  2  0  0  0  0
 14 16  1  0  0  0  0
 15 17  1  0  0  0  0
 15 32  1  0  0  0  0
 16 18  2  0  0  0  0
 16 33  1  0  0  0  0
 17 19  2  0  0  0  0
 17 34  1  0  0  0  0
 18 19  1  0  0  0  0
 18 35  1  0  0  0  0
 19 36  1  0  0  0  0
 20 21  2  0  0  0  0
 20 22  1  0  0  0  0
 21 23  1  0  0  0  0
 21 37  1  0  0  0  0
 22 24  2  0  0  0  0
 22 38  1  0  0  0  0
 23 25  2  0  0  0  0
 23 39  1  0  0  0  0
 24 25  1  0  0  0  0
 24 40  1  0  0  0  0
 25 41  1  0  0  0  0
M  END
>  <Mol_ID>
6914

>  <Formula>
C19H16N2O3S

>  <MolWeight>
352.40694

>  <Cat>
E2136

>  <Name>
WAY-299775

>  <Target>
Others

>  <Form>
Free base

>  <CAS>
333441-43-3

>  <URL>
https://www.selleckchem.com/products/way-299775.html

$$$$
