WAY-312031
 OpenBabel08302521393D

 44 46  0  0  0  0  0  0  0  0999 V2000
    1.3459   -0.0149    0.1001 N   0  0  0  0  0  0  0  0  0  0  0  0
    3.0274   -0.0198   -0.2645 S   0  0  0  0  0  0  0  0  0  0  0  0
    0.6369    1.2281   -0.3163 C   0  0  0  0  0  0  0  0  0  0  0  0
    0.6408   -1.2392   -0.3722 C   0  0  0  0  0  0  0  0  0  0  0  0
    3.6939    1.0997    0.9411 C   0  0  0  0  0  0  0  0  0  0  0  0
    3.5596   -1.3286    0.0517 O   0  0  0  0  0  0  0  0  0  0  0  0
    3.1841    0.5648   -1.5800 O   0  0  0  0  0  0  0  0  0  0  0  0
   -0.7563    1.2432    0.3006 C   0  0  0  0  0  0  0  0  0  0  0  0
   -0.7586   -1.2821    0.2328 C   0  0  0  0  0  0  0  0  0  0  0  0
    3.4901    0.8257    2.2977 C   0  0  0  0  0  0  0  0  0  0  0  0
    4.4412    2.2092    0.5394 C   0  0  0  0  0  0  0  0  0  0  0  0
   -1.5482   -0.0100   -0.0868 C   0  0  0  0  0  0  0  0  0  0  0  0
    4.0228    1.6837    3.2591 C   0  0  0  0  0  0  0  0  0  0  0  0
    4.9803    3.0566    1.5083 C   0  0  0  0  0  0  0  0  0  0  0  0
   -2.9110   -0.0264    0.5925 C   0  0  0  0  0  0  0  0  0  0  0  0
    4.7655    2.7976    2.8642 C   0  0  0  0  0  0  0  0  0  0  0  0
   -2.8824   -0.0353    1.9628 N   0  0  0  0  0  0  0  0  0  0  0  0
   -3.9499   -0.0305   -0.0624 O   0  0  0  0  0  0  0  0  0  0  0  0
   -4.0784   -0.0755    2.7706 C   0  0  0  0  0  0  0  0  0  0  0  0
   -4.0547   -1.3222    3.5724 C   0  0  0  0  0  0  0  0  0  0  0  0
   -4.5604   -2.5890    3.3658 C   0  0  0  0  0  0  0  0  0  0  0  0
   -3.4061   -1.2701    4.7731 O   0  0  0  0  0  0  0  0  0  0  0  0
   -4.2129   -3.3497    4.5076 C   0  0  0  0  0  0  0  0  0  0  0  0
   -3.5146   -2.5021    5.3350 C   0  0  0  0  0  0  0  0  0  0  0  0
    0.5654    1.2780   -1.4092 H   0  0  0  0  0  0  0  0  0  0  0  0
    1.1798    2.1112    0.0349 H   0  0  0  0  0  0  0  0  0  0  0  0
    1.1740   -2.1330   -0.0313 H   0  0  0  0  0  0  0  0  0  0  0  0
    0.5952   -1.2580   -1.4666 H   0  0  0  0  0  0  0  0  0  0  0  0
   -1.2983    2.1399   -0.0242 H   0  0  0  0  0  0  0  0  0  0  0  0
   -0.6587    1.3171    1.3904 H   0  0  0  0  0  0  0  0  0  0  0  0
   -0.6695   -1.4152    1.3181 H   0  0  0  0  0  0  0  0  0  0  0  0
   -1.2981   -2.1608   -0.1416 H   0  0  0  0  0  0  0  0  0  0  0  0
    2.9326   -0.0566    2.6037 H   0  0  0  0  0  0  0  0  0  0  0  0
    4.6228    2.4093   -0.5144 H   0  0  0  0  0  0  0  0  0  0  0  0
   -1.7313    0.0184   -1.1708 H   0  0  0  0  0  0  0  0  0  0  0  0
    3.8703    1.4789    4.3160 H   0  0  0  0  0  0  0  0  0  0  0  0
    5.5770    3.9154    1.2095 H   0  0  0  0  0  0  0  0  0  0  0  0
    5.1877    3.4607    3.6160 H   0  0  0  0  0  0  0  0  0  0  0  0
   -2.0018   -0.0777    2.4575 H   0  0  0  0  0  0  0  0  0  0  0  0
   -4.0568    0.8032    3.4230 H   0  0  0  0  0  0  0  0  0  0  0  0
   -4.9786   -0.0247    2.1522 H   0  0  0  0  0  0  0  0  0  0  0  0
   -5.1131   -2.9166    2.4955 H   0  0  0  0  0  0  0  0  0  0  0  0
   -4.4434   -4.3873    4.7049 H   0  0  0  0  0  0  0  0  0  0  0  0
   -3.0526   -2.6164    6.3059 H   0  0  0  0  0  0  0  0  0  0  0  0
  1  2  1  0  0  0  0
  1  3  1  0  0  0  0
  1  4  1  0  0  0  0
  2  5  1  0  0  0  0
  2  6  2  0  0  0  0
  2  7  2  0  0  0  0
  3  8  1  0  0  0  0
  3 25  1  0  0  0  0
  3 26  1  0  0  0  0
  4  9  1  0  0  0  0
  4 27  1  0  0  0  0
  4 28  1  0  0  0  0
  5 10  2  0  0  0  0
  5 11  1  0  0  0  0
  8 12  1  0  0  0  0
  8 29  1  0  0  0  0
  8 30  1  0  0  0  0
  9 12  1  0  0  0  0
  9 31  1  0  0  0  0
  9 32  1  0  0  0  0
 10 13  1  0  0  0  0
 10 33  1  0  0  0  0
 11 14  2  0  0  0  0
 11 34  1  0  0  0  0
 12 15  1  0  0  0  0
 12 35  1  0  0  0  0
 13 16  2  0  0  0  0
 13 36  1  0  0  0  0
 14 16  1  0  0  0  0
 14 37  1  0  0  0  0
 15 17  1  0  0  0  0
 15 18  2  0  0  0  0
 16 38  1  0  0  0  0
 17 19  1  0  0  0  0
 17 39  1  0  0  0  0
 19 20  1  0  0  0  0
 19 40  1  0  0  0  0
 19 41  1  0  0  0  0
 20 21  2  0  0  0  0
 20 22  1  0  0  0  0
 21 23  1  0  0  0  0
 21 42  1  0  0  0  0
 22 24  1  0  0  0  0
 23 24  2  0  0  0  0
 23 43  1  0  0  0  0
 24 44  1  0  0  0  0
M  END
>  <Mol_ID>
8034

>  <Formula>
C17H20N2O4S

>  <MolWeight>
348.4167

>  <Cat>
P2223

>  <Name>
WAY-312031

>  <Synonyms>
N/A

>  <Target>
others

>  <Form>
free base

>  <CAS>
591238-18-5

>  <URL>
N/A

$$$$
