WAY-301292
 OpenBabel08302521413D

 35 37  0  0  0  0  0  0  0  0999 V2000
   -0.1666   -0.5966   -0.2042 C   0  0  0  0  0  0  0  0  0  0  0  0
   -0.1559    0.6154   -0.8558 C   0  0  0  0  0  0  0  0  0  0  0  0
    0.9921   -1.3156    0.0408 C   0  0  0  0  0  0  0  0  0  0  0  0
   -1.4236   -0.9718    0.1594 O   0  0  0  0  0  0  0  0  0  0  0  0
    1.0163    1.1856   -1.2974 C   0  0  0  0  0  0  0  0  0  0  0  0
   -1.3988    1.1476   -0.9902 O   0  0  0  0  0  0  0  0  0  0  0  0
    2.2050   -0.7724   -0.4116 C   0  0  0  0  0  0  0  0  0  0  0  0
   -2.1983    0.1428   -0.3342 C   0  0  0  0  0  0  0  0  0  0  0  0
    2.2058    0.4839   -1.0669 C   0  0  0  0  0  0  0  0  0  0  0  0
    3.5163   -1.4446   -0.2014 C   0  0  0  0  0  0  0  0  0  0  0  0
    3.5218   -2.8388   -0.1707 N   0  0  0  0  0  0  0  0  0  0  0  0
    4.5382   -0.7535   -0.1471 O   0  0  0  0  0  0  0  0  0  0  0  0
    4.7383   -3.5680   -0.0766 C   0  0  0  0  0  0  0  0  0  0  0  0
    5.1693   -4.5289   -1.0251 C   0  0  0  0  0  0  0  0  0  0  0  0
    5.5215   -3.3213    1.0685 C   0  0  0  0  0  0  0  0  0  0  0  0
    6.3541   -5.2455   -0.7643 C   0  0  0  0  0  0  0  0  0  0  0  0
    4.4394   -4.7218   -2.3242 C   0  0  0  0  0  0  0  0  0  0  0  0
    6.6909   -4.0396    1.3072 C   0  0  0  0  0  0  0  0  0  0  0  0
    7.1007   -5.0075    0.3998 C   0  0  0  0  0  0  0  0  0  0  0  0
    5.2380   -5.2576   -3.3064 O   0  0  0  0  0  0  0  0  0  0  0  0
    3.2883   -4.3789   -2.4854 O   0  0  0  0  0  0  0  0  0  0  0  0
    4.6343   -5.4954   -4.5941 C   0  0  0  0  0  0  0  0  0  0  0  0
    0.9376   -2.2516    0.5853 H   0  0  0  0  0  0  0  0  0  0  0  0
    1.0190    2.1443   -1.8037 H   0  0  0  0  0  0  0  0  0  0  0  0
   -2.9442   -0.2329   -1.0445 H   0  0  0  0  0  0  0  0  0  0  0  0
   -2.7210    0.6078    0.5095 H   0  0  0  0  0  0  0  0  0  0  0  0
    3.1479    0.9155   -1.4040 H   0  0  0  0  0  0  0  0  0  0  0  0
    2.7370   -3.3102   -0.6154 H   0  0  0  0  0  0  0  0  0  0  0  0
    5.2066   -2.5781    1.7941 H   0  0  0  0  0  0  0  0  0  0  0  0
    6.7294   -5.9874   -1.4653 H   0  0  0  0  0  0  0  0  0  0  0  0
    7.2824   -3.8296    2.1958 H   0  0  0  0  0  0  0  0  0  0  0  0
    8.0200   -5.5603    0.5808 H   0  0  0  0  0  0  0  0  0  0  0  0
    3.5387   -5.4952   -4.5714 H   0  0  0  0  0  0  0  0  0  0  0  0
    4.9846   -4.7478   -5.3173 H   0  0  0  0  0  0  0  0  0  0  0  0
    4.9584   -6.4792   -4.9522 H   0  0  0  0  0  0  0  0  0  0  0  0
  1  2  1  0  0  0  0
  1  3  2  0  0  0  0
  1  4  1  0  0  0  0
  2  5  2  0  0  0  0
  2  6  1  0  0  0  0
  3  7  1  0  0  0  0
  3 23  1  0  0  0  0
  4  8  1  0  0  0  0
  5  9  1  0  0  0  0
  5 24  1  0  0  0  0
  6  8  1  0  0  0  0
  7 10  1  0  0  0  0
  7  9  2  0  0  0  0
  8 25  1  0  0  0  0
  8 26  1  0  0  0  0
  9 27  1  0  0  0  0
 10 11  1  0  0  0  0
 10 12  2  0  0  0  0
 11 13  1  0  0  0  0
 11 28  1  0  0  0  0
 13 14  2  0  0  0  0
 13 15  1  0  0  0  0
 14 16  1  0  0  0  0
 14 17  1  0  0  0  0
 15 18  2  0  0  0  0
 15 29  1  0  0  0  0
 16 19  2  0  0  0  0
 16 30  1  0  0  0  0
 17 20  1  0  0  0  0
 17 21  2  0  0  0  0
 18 19  1  0  0  0  0
 18 31  1  0  0  0  0
 19 32  1  0  0  0  0
 20 22  1  0  0  0  0
 22 33  1  0  0  0  0
 22 34  1  0  0  0  0
 22 35  1  0  0  0  0
M  END
>  <Mol_ID>
8431

>  <Formula>
C16H13NO5

>  <MolWeight>
299.27812

>  <Cat>
P2164

>  <Name>
WAY-301292

>  <Synonyms>
N/A

>  <Target>
others

>  <Form>
free base

>  <CAS>
67848-13-9

>  <URL>
N/A

$$$$
