WAY-659989
 OpenBabel08302521443D

 58 61  0  0  0  0  0  0  0  0999 V2000
    0.9683    0.1174    0.0602 C   0  0  0  0  0  0  0  0  0  0  0  0
    2.3178    0.4224    0.6319 C   0  0  0  0  0  0  0  0  0  0  0  0
    1.2097   -5.6964    0.4053 N   0  0  0  0  0  0  0  0  0  0  0  0
    0.3703   -1.1552   -0.0499 C   0  0  0  0  0  0  0  0  0  0  0  0
    1.0969   -2.3599    0.1496 N   0  0  0  0  0  0  0  0  0  0  0  0
    1.0244   -3.4269   -0.7233 C   0  0  0  0  0  0  0  0  0  0  0  0
    2.9854   -0.5953    1.2775 N   0  0  0  0  0  0  0  0  0  0  0  0
   -1.2335   -6.1086    0.3370 C   0  0  0  0  0  0  0  0  0  0  0  0
    0.0897   -6.1687   -0.3918 C   0  0  0  0  0  0  0  0  0  0  0  0
    1.9216   -4.6142   -0.2732 C   0  0  0  0  0  0  0  0  0  0  0  0
   -1.2214   -6.9000    1.4856 C   0  0  0  0  0  0  0  0  0  0  0  0
    2.7248    1.5800    0.6928 O   0  0  0  0  0  0  0  0  0  0  0  0
    0.3980   -3.4373   -1.7990 O   0  0  0  0  0  0  0  0  0  0  0  0
    0.9168   -5.5830    1.8409 C   0  0  0  0  0  0  0  0  0  0  0  0
   -0.0058   -6.7449    2.3698 C   0  0  0  0  0  0  0  0  0  0  0  0
    3.1631   -0.4007    2.6994 C   0  0  0  0  0  0  0  0  0  0  0  0
    4.0379   -1.4547    3.3086 C   0  0  0  0  0  0  0  0  0  0  0  0
    5.7664   -3.3060    4.5293 C   0  0  0  0  0  0  0  0  0  0  0  0
    0.1987    1.2603   -0.2276 C   0  0  0  0  0  0  0  0  0  0  0  0
    5.3621   -1.5845    2.8756 C   0  0  0  0  0  0  0  0  0  0  0  0
    3.5778   -2.2698    4.3512 C   0  0  0  0  0  0  0  0  0  0  0  0
    6.2191   -2.5016    3.4795 C   0  0  0  0  0  0  0  0  0  0  0  0
    4.4380   -3.1895    4.9559 C   0  0  0  0  0  0  0  0  0  0  0  0
   -1.0097   -1.2386   -0.2933 C   0  0  0  0  0  0  0  0  0  0  0  0
   -2.4022   -5.8424   -0.3594 C   0  0  0  0  0  0  0  0  0  0  0  0
   -2.2048   -7.8726    1.5662 C   0  0  0  0  0  0  0  0  0  0  0  0
    6.7002   -4.2588    5.2142 C   0  0  0  0  0  0  0  0  0  0  0  0
   -1.1716    1.1637   -0.4443 C   0  0  0  0  0  0  0  0  0  0  0  0
   -1.7823   -0.0833   -0.4347 C   0  0  0  0  0  0  0  0  0  0  0  0
   -3.4364   -6.7429   -0.1986 C   0  0  0  0  0  0  0  0  0  0  0  0
   -3.2829   -7.8251    0.6676 C   0  0  0  0  0  0  0  0  0  0  0  0
    1.2884   -2.5918    1.1170 H   0  0  0  0  0  0  0  0  0  0  0  0
    2.7647   -1.5307    0.9869 H   0  0  0  0  0  0  0  0  0  0  0  0
    0.2701   -7.2394   -0.5807 H   0  0  0  0  0  0  0  0  0  0  0  0
    0.0111   -5.7481   -1.3960 H   0  0  0  0  0  0  0  0  0  0  0  0
    2.3752   -5.0132   -1.1826 H   0  0  0  0  0  0  0  0  0  0  0  0
    2.7539   -4.2474    0.3370 H   0  0  0  0  0  0  0  0  0  0  0  0
    1.8495   -5.5886    2.4174 H   0  0  0  0  0  0  0  0  0  0  0  0
    0.4225   -4.6239    2.0464 H   0  0  0  0  0  0  0  0  0  0  0  0
    0.5540   -7.6837    2.4162 H   0  0  0  0  0  0  0  0  0  0  0  0
   -0.3365   -6.4869    3.3861 H   0  0  0  0  0  0  0  0  0  0  0  0
    3.5718    0.5960    2.8999 H   0  0  0  0  0  0  0  0  0  0  0  0
    2.1609   -0.4275    3.1485 H   0  0  0  0  0  0  0  0  0  0  0  0
    0.6582    2.2488   -0.2170 H   0  0  0  0  0  0  0  0  0  0  0  0
    5.7358   -0.9467    2.0761 H   0  0  0  0  0  0  0  0  0  0  0  0
    2.5592   -2.1776    4.7222 H   0  0  0  0  0  0  0  0  0  0  0  0
    7.2483   -2.5668    3.1351 H   0  0  0  0  0  0  0  0  0  0  0  0
    4.0725   -3.8011    5.7782 H   0  0  0  0  0  0  0  0  0  0  0  0
   -1.5104   -2.2043   -0.3211 H   0  0  0  0  0  0  0  0  0  0  0  0
   -2.4317   -5.0617   -1.1144 H   0  0  0  0  0  0  0  0  0  0  0  0
   -2.1045   -8.7121    2.2477 H   0  0  0  0  0  0  0  0  0  0  0  0
    6.8235   -3.9727    6.2635 H   0  0  0  0  0  0  0  0  0  0  0  0
    6.3102   -5.2795    5.1591 H   0  0  0  0  0  0  0  0  0  0  0  0
    7.6903   -4.2515    4.7463 H   0  0  0  0  0  0  0  0  0  0  0  0
   -1.7597    2.0688   -0.5760 H   0  0  0  0  0  0  0  0  0  0  0  0
   -2.8630   -0.1572   -0.5334 H   0  0  0  0  0  0  0  0  0  0  0  0
   -4.3191   -6.6543   -0.8362 H   0  0  0  0  0  0  0  0  0  0  0  0
   -4.0004   -8.6398    0.6310 H   0  0  0  0  0  0  0  0  0  0  0  0
  2  1  1  0  0  0  0
  3 10  1  0  0  0  0
  4  1  1  0  0  0  0
  5  4  1  0  0  0  0
  5 32  1  0  0  0  0
  6  5  1  0  0  0  0
  7  2  1  0  0  0  0
  7 33  1  0  0  0  0
  8  9  1  0  0  0  0
  9  3  1  0  0  0  0
  9 34  1  0  0  0  0
  9 35  1  0  0  0  0
 10  6  1  0  0  0  0
 10 36  1  0  0  0  0
 10 37  1  0  0  0  0
 11 15  1  0  0  0  0
 11  8  2  0  0  0  0
 12  2  2  0  0  0  0
 13  6  2  0  0  0  0
 14  3  1  0  0  0  0
 14 38  1  0  0  0  0
 14 39  1  0  0  0  0
 15 14  1  0  0  0  0
 15 40  1  0  0  0  0
 15 41  1  0  0  0  0
 16  7  1  0  0  0  0
 16 42  1  0  0  0  0
 16 43  1  0  0  0  0
 17 16  1  0  0  0  0
 18 23  2  0  0  0  0
 19  1  2  0  0  0  0
 19 44  1  0  0  0  0
 20 17  1  0  0  0  0
 20 45  1  0  0  0  0
 21 17  2  0  0  0  0
 21 46  1  0  0  0  0
 22 20  2  0  0  0  0
 22 18  1  0  0  0  0
 22 47  1  0  0  0  0
 23 21  1  0  0  0  0
 23 48  1  0  0  0  0
 24  4  2  0  0  0  0
 24 49  1  0  0  0  0
 25  8  1  0  0  0  0
 25 50  1  0  0  0  0
 26 11  1  0  0  0  0
 26 51  1  0  0  0  0
 27 18  1  0  0  0  0
 27 52  1  0  0  0  0
 27 53  1  0  0  0  0
 27 54  1  0  0  0  0
 28 19  1  0  0  0  0
 28 55  1  0  0  0  0
 29 28  2  0  0  0  0
 29 24  1  0  0  0  0
 29 56  1  0  0  0  0
 30 25  2  0  0  0  0
 30 31  1  0  0  0  0
 30 57  1  0  0  0  0
 31 26  2  0  0  0  0
 31 58  1  0  0  0  0
M  END
>  <Mol_ID>
9115

>  <Formula>
C26H27N3O2

>  <MolWeight>
413.51148

>  <Cat>
P3195

>  <Name>
WAY-659989

>  <Synonyms>
N/A

>  <Target>
Anti-infection

>  <Form>
free base

>  <CAS>
869474-87-3

>  <URL>
N/A

$$$$
