WAY-657095
 OpenBabel08302521423D

 36 38  0  0  0  0  0  0  0  0999 V2000
    0.2365    5.6923   -6.2254 N   0  3  0  0  0  0  0  0  0  0  0  0
   -3.3171    2.9247    2.5588 C   0  0  0  0  0  0  0  0  0  0  0  0
   -4.9921    1.3719    3.4854 C   0  0  0  0  0  0  0  0  0  0  0  0
   -2.3812    2.4832    3.5157 O   0  0  0  0  0  0  0  0  0  0  0  0
   -2.6634    1.4067    4.3349 C   0  0  0  0  0  0  0  0  0  0  0  0
   -4.6154    2.4157    2.5214 C   0  0  0  0  0  0  0  0  0  0  0  0
   -1.8509    5.2732   -0.8438 C   0  0  0  0  0  0  0  0  0  0  0  0
   -4.0439    0.8992    4.3083 C   0  0  0  0  0  0  0  0  0  0  0  0
   -3.1524    4.8380   -0.6332 N   0  0  0  0  0  0  0  0  0  0  0  0
   -2.8318    3.8221    1.6027 C   0  0  0  0  0  0  0  0  0  0  0  0
   -0.3273    5.6479   -4.8696 C   0  0  0  0  0  0  0  0  0  0  0  0
    1.4274    6.0109   -6.3461 O   0  5  0  0  0  0  0  0  0  0  0  0
   -5.4604    2.8879    1.5130 C   0  0  0  0  0  0  0  0  0  0  0  0
   -1.4007    5.4641   -2.2673 C   0  0  0  0  0  0  0  0  0  0  0  0
   -3.6376    4.1813    0.5261 C   0  0  0  0  0  0  0  0  0  0  0  0
   -0.5129    5.3987   -7.1688 O   0  0  0  0  0  0  0  0  0  0  0  0
   -1.0324    5.4815    0.0461 O   0  0  0  0  0  0  0  0  0  0  0  0
   -1.8237    0.8965    5.0674 O   0  0  0  0  0  0  0  0  0  0  0  0
    0.4917    5.8998   -3.7654 C   0  0  0  0  0  0  0  0  0  0  0  0
   -1.6753    5.3249   -4.6891 C   0  0  0  0  0  0  0  0  0  0  0  0
   -0.0479    5.8038   -2.4759 C   0  0  0  0  0  0  0  0  0  0  0  0
   -2.2143    5.2429   -3.3888 C   0  0  0  0  0  0  0  0  0  0  0  0
   -4.9724    3.7526    0.5189 C   0  0  0  0  0  0  0  0  0  0  0  0
   -6.3836    0.8124    3.4992 C   0  0  0  0  0  0  0  0  0  0  0  0
   -4.2378    0.0946    5.0088 H   0  0  0  0  0  0  0  0  0  0  0  0
   -3.7988    4.8568   -1.4065 H   0  0  0  0  0  0  0  0  0  0  0  0
   -1.8016    4.1495    1.6904 H   0  0  0  0  0  0  0  0  0  0  0  0
   -6.4918    2.5519    1.4415 H   0  0  0  0  0  0  0  0  0  0  0  0
    1.5452    6.1499   -3.8804 H   0  0  0  0  0  0  0  0  0  0  0  0
   -2.3253    5.1188   -5.5389 H   0  0  0  0  0  0  0  0  0  0  0  0
    0.6095    5.9767   -1.6221 H   0  0  0  0  0  0  0  0  0  0  0  0
   -3.2632    4.9852   -3.3044 H   0  0  0  0  0  0  0  0  0  0  0  0
   -5.6465    4.0479   -0.2816 H   0  0  0  0  0  0  0  0  0  0  0  0
   -7.1194    1.6012    3.6851 H   0  0  0  0  0  0  0  0  0  0  0  0
   -6.6175    0.3246    2.5468 H   0  0  0  0  0  0  0  0  0  0  0  0
   -6.5108    0.0606    4.2871 H   0  0  0  0  0  0  0  0  0  0  0  0
  2 10  2  0  0  0  0
  3  6  1  0  0  0  0
  4  2  1  0  0  0  0
  5  4  1  0  0  0  0
  5  8  1  0  0  0  0
  6 13  2  0  0  0  0
  6  2  1  0  0  0  0
  7 14  1  0  0  0  0
  8  3  2  0  0  0  0
  8 25  1  0  0  0  0
  9  7  1  0  0  0  0
  9 26  1  0  0  0  0
 10 15  1  0  0  0  0
 10 27  1  0  0  0  0
 11  1  1  0  0  0  0
 12  1  1  0  0  0  0
 13 23  1  0  0  0  0
 13 28  1  0  0  0  0
 14 22  1  0  0  0  0
 14 21  2  0  0  0  0
 15  9  1  0  0  0  0
 16  1  2  0  0  0  0
 17  7  2  0  0  0  0
 18  5  2  0  0  0  0
 19 11  2  0  0  0  0
 19 29  1  0  0  0  0
 20 11  1  0  0  0  0
 20 30  1  0  0  0  0
 21 19  1  0  0  0  0
 21 31  1  0  0  0  0
 22 20  2  0  0  0  0
 22 32  1  0  0  0  0
 23 15  2  0  0  0  0
 23 33  1  0  0  0  0
 24  3  1  0  0  0  0
 24 34  1  0  0  0  0
 24 35  1  0  0  0  0
 24 36  1  0  0  0  0
M  CHG  2   1   1  12  -1
M  END
>  <Mol_ID>
8539

>  <Formula>
C17H12N2O5

>  <MolWeight>
324.28758

>  <Cat>
P3150

>  <Name>
WAY-657095

>  <Synonyms>
N/A

>  <Target>
Immunology & Inflammation related

>  <Form>
free base

>  <CAS>
852917-90-9

>  <URL>
N/A

$$$$
