WAY-344709
 OpenBabel08302521393D

 31 33  0  0  0  0  0  0  0  0999 V2000
   -1.1287   -0.0094   -0.0967 O   0  0  0  0  0  0  0  0  0  0  0  0
   -0.2551   -1.0564    0.0320 C   0  0  0  0  0  0  0  0  0  0  0  0
    0.9941   -0.6603    0.1723 N   0  0  0  0  0  0  0  0  0  0  0  0
   -0.2873    1.0697   -0.0422 C   0  0  0  0  0  0  0  0  0  0  0  0
    0.9719    0.7188    0.1289 N   0  0  0  0  0  0  0  0  0  0  0  0
   -0.8163   -2.4042    0.0439 C   0  0  0  0  0  0  0  0  0  0  0  0
   -2.6490   -3.9359   -0.0780 C   0  0  0  0  0  0  0  0  0  0  0  0
   -2.1895   -2.6355   -0.1353 C   0  0  0  0  0  0  0  0  0  0  0  0
   -1.8049   -4.9969    0.1476 C   0  0  0  0  0  0  0  0  0  0  0  0
   -3.9436   -4.3259   -0.2258 O   0  0  0  0  0  0  0  0  0  0  0  0
    0.9369    2.9723   -2.2550 C   0  0  0  0  0  0  0  0  0  0  0  0
   -0.8507    2.7110   -0.1386 S   0  0  0  0  0  0  0  0  0  0  0  0
   -2.4630   -6.1861    0.1807 O   0  0  0  0  0  0  0  0  0  0  0  0
   -3.8133   -5.7590   -0.0928 C   0  0  0  0  0  0  0  0  0  0  0  0
    0.0420   -3.5096    0.2635 C   0  0  0  0  0  0  0  0  0  0  0  0
    0.2921    2.1099   -2.8441 O   0  0  0  0  0  0  0  0  0  0  0  0
   -0.4533   -4.8180    0.3219 C   0  0  0  0  0  0  0  0  0  0  0  0
    0.6112    3.5022   -0.8644 C   0  0  0  0  0  0  0  0  0  0  0  0
    2.0555    3.5633   -2.8172 N   0  0  0  0  0  0  0  0  0  0  0  0
    2.5876    3.0657   -4.0606 C   0  0  0  0  0  0  0  0  0  0  0  0
   -2.8894   -1.8226   -0.3125 H   0  0  0  0  0  0  0  0  0  0  0  0
   -4.4634   -6.0973    0.7219 H   0  0  0  0  0  0  0  0  0  0  0  0
   -4.1452   -6.2270   -1.0260 H   0  0  0  0  0  0  0  0  0  0  0  0
    1.1120   -3.3465    0.3968 H   0  0  0  0  0  0  0  0  0  0  0  0
    0.2057   -5.6610    0.5005 H   0  0  0  0  0  0  0  0  0  0  0  0
    0.4139    4.5765   -0.9411 H   0  0  0  0  0  0  0  0  0  0  0  0
    1.4772    3.3614   -0.2082 H   0  0  0  0  0  0  0  0  0  0  0  0
    2.5813    4.2568   -2.3017 H   0  0  0  0  0  0  0  0  0  0  0  0
    2.9010    2.0275   -3.9187 H   0  0  0  0  0  0  0  0  0  0  0  0
    1.8154    3.1078   -4.8328 H   0  0  0  0  0  0  0  0  0  0  0  0
    3.4447    3.6773   -4.3499 H   0  0  0  0  0  0  0  0  0  0  0  0
  2  1  1  0  0  0  0
  3  2  2  0  0  0  0
  4  1  1  0  0  0  0
  5  4  2  0  0  0  0
  5  3  1  0  0  0  0
  6  2  1  0  0  0  0
  7  8  2  0  0  0  0
  8  6  1  0  0  0  0
  8 21  1  0  0  0  0
  9 17  2  0  0  0  0
  9  7  1  0  0  0  0
 10  7  1  0  0  0  0
 11 18  1  0  0  0  0
 12  4  1  0  0  0  0
 13  9  1  0  0  0  0
 14 10  1  0  0  0  0
 14 13  1  0  0  0  0
 14 22  1  0  0  0  0
 14 23  1  0  0  0  0
 15  6  2  0  0  0  0
 15 24  1  0  0  0  0
 16 11  2  0  0  0  0
 17 15  1  0  0  0  0
 17 25  1  0  0  0  0
 18 12  1  0  0  0  0
 18 26  1  0  0  0  0
 18 27  1  0  0  0  0
 19 11  1  0  0  0  0
 19 28  1  0  0  0  0
 20 19  1  0  0  0  0
 20 29  1  0  0  0  0
 20 30  1  0  0  0  0
 20 31  1  0  0  0  0
M  END
>  <Mol_ID>
8104

>  <Formula>
C12H11N3O4S

>  <MolWeight>
293.29844

>  <Cat>
P2738

>  <Name>
WAY-344709

>  <Synonyms>
N/A

>  <Target>
AR

>  <Form>
free base

>  <CAS>
606950-50-9

>  <URL>
N/A

$$$$
