WAY-332061
 OpenBabel08302521443D

 49 51  0  0  0  0  0  0  0  0999 V2000
   -0.3136    4.5775    1.5620 N   0  0  0  0  0  0  0  0  0  0  0  0
   -0.6875    3.3435    1.0694 C   0  0  0  0  0  0  0  0  0  0  0  0
   -1.3185    4.9404    2.3366 C   0  0  0  0  0  0  0  0  0  0  0  0
   -2.3243    4.0141    2.4091 O   0  0  0  0  0  0  0  0  0  0  0  0
   -1.9186    2.9999    1.5886 C   0  0  0  0  0  0  0  0  0  0  0  0
   -0.4539    3.1361   -1.6123 S   0  0  3  0  0  0  0  0  0  0  0  0
    0.1344    2.6601    0.0409 C   0  0  0  0  0  0  0  0  0  0  0  0
    1.3428    5.2795   -1.1723 C   0  0  0  0  0  0  0  0  0  0  0  0
   -0.0752    4.9105   -1.5577 C   0  0  0  0  0  0  0  0  0  0  0  0
    1.4536    6.5114   -0.5449 N   0  0  0  0  0  0  0  0  0  0  0  0
   -1.5278    6.2090    3.0279 C   0  0  0  0  0  0  0  0  0  0  0  0
    2.7394    6.9901   -0.0499 C   0  0  3  0  0  0  0  0  0  0  0  0
    0.3815    2.4580   -2.6553 O   0  0  0  0  0  0  0  0  0  0  0  0
    2.3243    4.5872   -1.4229 O   0  0  0  0  0  0  0  0  0  0  0  0
   -0.5772    7.2343    2.8991 C   0  0  0  0  0  0  0  0  0  0  0  0
   -2.6719    6.4547    3.7966 C   0  0  0  0  0  0  0  0  0  0  0  0
    2.7580    8.5140    0.0174 C   0  0  0  0  0  0  0  0  0  0  0  0
   -1.8948    8.6921    4.2932 C   0  0  0  0  0  0  0  0  0  0  0  0
   -0.7550    8.4667    3.5282 C   0  0  0  0  0  0  0  0  0  0  0  0
   -2.8521    7.6905    4.4268 C   0  0  0  0  0  0  0  0  0  0  0  0
   -2.8611    1.8838    1.3995 C   0  0  0  0  0  0  0  0  0  0  0  0
    3.1049    6.2802    1.2600 C   0  0  0  0  0  0  0  0  0  0  0  0
    2.9587    9.2316    1.2082 C   0  0  0  0  0  0  0  0  0  0  0  0
    2.6467    9.2466   -1.1791 C   0  0  0  0  0  0  0  0  0  0  0  0
    2.7737   10.6387   -1.1890 C   0  0  0  0  0  0  0  0  0  0  0  0
    3.0954   10.6237    1.1964 C   0  0  0  0  0  0  0  0  0  0  0  0
    3.0133   11.3257   -0.0024 C   0  0  0  0  0  0  0  0  0  0  0  0
    1.1977    2.8891    0.1518 H   0  0  0  0  0  0  0  0  0  0  0  0
    0.0241    1.5738    0.1248 H   0  0  0  0  0  0  0  0  0  0  0  0
   -0.2727    5.3124   -2.5557 H   0  0  0  0  0  0  0  0  0  0  0  0
   -0.7912    5.3785   -0.8758 H   0  0  0  0  0  0  0  0  0  0  0  0
    0.6204    6.9678   -0.1991 H   0  0  0  0  0  0  0  0  0  0  0  0
    3.5064    6.7018   -0.7812 H   0  0  0  0  0  0  0  0  0  0  0  0
    0.3115    7.0754    2.2981 H   0  0  0  0  0  0  0  0  0  0  0  0
   -3.4369    5.6895    3.9077 H   0  0  0  0  0  0  0  0  0  0  0  0
   -2.0396    9.6517    4.7839 H   0  0  0  0  0  0  0  0  0  0  0  0
   -0.0065    9.2484    3.4149 H   0  0  0  0  0  0  0  0  0  0  0  0
   -3.7483    7.8681    5.0165 H   0  0  0  0  0  0  0  0  0  0  0  0
   -3.0848    1.4018    2.3555 H   0  0  0  0  0  0  0  0  0  0  0  0
   -3.7993    2.2514    0.9712 H   0  0  0  0  0  0  0  0  0  0  0  0
   -2.4547    1.1274    0.7214 H   0  0  0  0  0  0  0  0  0  0  0  0
    2.3672    6.4683    2.0448 H   0  0  0  0  0  0  0  0  0  0  0  0
    3.1521    5.1951    1.1232 H   0  0  0  0  0  0  0  0  0  0  0  0
    4.0809    6.6108    1.6313 H   0  0  0  0  0  0  0  0  0  0  0  0
    3.0464    8.7247    2.1653 H   0  0  0  0  0  0  0  0  0  0  0  0
    2.4893    8.7267   -2.1231 H   0  0  0  0  0  0  0  0  0  0  0  0
    2.7088   11.1837   -2.1272 H   0  0  0  0  0  0  0  0  0  0  0  0
    3.2890   11.1571    2.1240 H   0  0  0  0  0  0  0  0  0  0  0  0
    3.1462   12.4045   -0.0130 H   0  0  0  0  0  0  0  0  0  0  0  0
  2  1  1  0  0  0  0
  3  1  2  0  0  0  0
  4  3  1  0  0  0  0
  5  2  2  0  0  0  0
  5  4  1  0  0  0  0
  6  7  1  0  0  0  0
  7  2  1  0  0  0  0
  7 28  1  0  0  0  0
  7 29  1  0  0  0  0
  8  9  1  0  0  0  0
  9  6  1  0  0  0  0
  9 30  1  0  0  0  0
  9 31  1  0  0  0  0
 10  8  1  0  0  0  0
 10 32  1  0  0  0  0
 11  3  1  0  0  0  0
 12 10  1  0  0  0  0
 12 33  1  0  0  0  0
 13  6  2  0  0  0  0
 14  8  2  0  0  0  0
 15 11  2  0  0  0  0
 15 34  1  0  0  0  0
 16 11  1  0  0  0  0
 16 35  1  0  0  0  0
 17 12  1  0  0  0  0
 18 20  1  0  0  0  0
 18 19  2  0  0  0  0
 18 36  1  0  0  0  0
 19 15  1  0  0  0  0
 19 37  1  0  0  0  0
 20 16  2  0  0  0  0
 20 38  1  0  0  0  0
 21  5  1  0  0  0  0
 21 39  1  0  0  0  0
 21 40  1  0  0  0  0
 21 41  1  0  0  0  0
 22 12  1  0  0  0  0
 22 42  1  0  0  0  0
 22 43  1  0  0  0  0
 22 44  1  0  0  0  0
 23 17  2  0  0  0  0
 23 45  1  0  0  0  0
 24 17  1  0  0  0  0
 24 46  1  0  0  0  0
 25 24  2  0  0  0  0
 25 47  1  0  0  0  0
 26 23  1  0  0  0  0
 26 48  1  0  0  0  0
 27 25  1  0  0  0  0
 27 26  2  0  0  0  0
 27 49  1  0  0  0  0
M  END
>  <Mol_ID>
9198

>  <Formula>
C21H21ClN2O3S

>  <MolWeight>
416.92104

>  <Cat>
P2704

>  <Name>
WAY-332061

>  <Synonyms>
N/A

>  <Target>
beta-catenin

>  <Form>
free base

>  <CAS>
1015858-87-3

>  <URL>
N/A

$$$$
