WAY-352832
 OpenBabel08302521393D

 35 37  0  0  0  0  0  0  0  0999 V2000
    1.2700    0.7362   -0.1167 C   0  0  0  0  0  0  0  0  0  0  0  0
    2.4559    1.5663   -0.3114 C   0  0  0  0  0  0  0  0  0  0  0  0
    1.3041   -0.6525   -0.2199 N   0  0  0  0  0  0  0  0  0  0  0  0
    0.0167    1.2616    0.1279 C   0  0  0  0  0  0  0  0  0  0  0  0
    3.4748    1.1425   -1.1762 C   0  0  0  0  0  0  0  0  0  0  0  0
    2.5853    2.8136    0.3200 C   0  0  0  0  0  0  0  0  0  0  0  0
    0.0878   -1.1367   -0.0918 C   0  0  0  0  0  0  0  0  0  0  0  0
   -1.1357    0.0055    0.2333 S   0  0  0  0  0  0  0  0  0  0  0  0
    4.5790    1.9636   -1.4338 C   0  0  0  0  0  0  0  0  0  0  0  0
    3.6881    3.6346    0.0678 C   0  0  0  0  0  0  0  0  0  0  0  0
   -0.1727   -2.4853   -0.1475 N   0  0  0  0  0  0  0  0  0  0  0  0
    4.6759    3.2090   -0.8160 C   0  0  0  0  0  0  0  0  0  0  0  0
   -1.4188   -3.0651   -0.2823 C   0  0  0  0  0  0  0  0  0  0  0  0
    6.1479    4.3355   -1.1861 Br  0  0  0  0  0  0  0  0  0  0  0  0
   -1.3859   -4.5819   -0.1854 C   0  0  0  0  0  0  0  0  0  0  0  0
   -2.4842   -2.4831   -0.4702 O   0  0  0  0  0  0  0  0  0  0  0  0
   -1.1415   -5.2771   -1.5026 C   0  0  0  0  0  0  0  0  0  0  0  0
   -0.0663   -6.1639   -1.6467 C   0  0  0  0  0  0  0  0  0  0  0  0
   -2.0192   -5.0974   -2.5829 C   0  0  0  0  0  0  0  0  0  0  0  0
    0.1289   -6.8530   -2.8452 C   0  0  0  0  0  0  0  0  0  0  0  0
   -1.8223   -5.7880   -3.7807 C   0  0  0  0  0  0  0  0  0  0  0  0
   -0.7499   -6.6676   -3.9093 C   0  0  0  0  0  0  0  0  0  0  0  0
   -0.2862    2.2938    0.2278 H   0  0  0  0  0  0  0  0  0  0  0  0
    3.4018    0.1782   -1.6757 H   0  0  0  0  0  0  0  0  0  0  0  0
    1.8309    3.1672    1.0197 H   0  0  0  0  0  0  0  0  0  0  0  0
    5.3481    1.6273   -2.1242 H   0  0  0  0  0  0  0  0  0  0  0  0
    3.7594    4.6027    0.5571 H   0  0  0  0  0  0  0  0  0  0  0  0
    0.6551   -3.0568   -0.2421 H   0  0  0  0  0  0  0  0  0  0  0  0
   -0.6312   -4.8732    0.5553 H   0  0  0  0  0  0  0  0  0  0  0  0
   -2.3481   -4.9185    0.2218 H   0  0  0  0  0  0  0  0  0  0  0  0
    0.6200   -6.3421   -0.8222 H   0  0  0  0  0  0  0  0  0  0  0  0
   -2.8727   -4.4253   -2.4965 H   0  0  0  0  0  0  0  0  0  0  0  0
    0.9598   -7.5471   -2.9436 H   0  0  0  0  0  0  0  0  0  0  0  0
   -2.5116   -5.6451   -4.6087 H   0  0  0  0  0  0  0  0  0  0  0  0
   -0.6023   -7.2123   -4.8394 H   0  0  0  0  0  0  0  0  0  0  0  0
  1  2  1  0  0  0  0
  1  3  1  0  0  0  0
  1  4  2  0  0  0  0
  2  5  2  0  0  0  0
  2  6  1  0  0  0  0
  3  7  2  0  0  0  0
  4  8  1  0  0  0  0
  4 23  1  0  0  0  0
  5  9  1  0  0  0  0
  5 24  1  0  0  0  0
  6 10  2  0  0  0  0
  6 25  1  0  0  0  0
  7 11  1  0  0  0  0
  7  8  1  0  0  0  0
  9 12  2  0  0  0  0
  9 26  1  0  0  0  0
 10 12  1  0  0  0  0
 10 27  1  0  0  0  0
 11 13  1  0  0  0  0
 11 28  1  0  0  0  0
 12 14  1  0  0  0  0
 13 15  1  0  0  0  0
 13 16  2  0  0  0  0
 15 17  1  0  0  0  0
 15 29  1  0  0  0  0
 15 30  1  0  0  0  0
 17 18  2  0  0  0  0
 17 19  1  0  0  0  0
 18 20  1  0  0  0  0
 18 31  1  0  0  0  0
 19 21  2  0  0  0  0
 19 32  1  0  0  0  0
 20 22  2  0  0  0  0
 20 33  1  0  0  0  0
 21 22  1  0  0  0  0
 21 34  1  0  0  0  0
 22 35  1  0  0  0  0
M  END
>  <Mol_ID>
8053

>  <Formula>
C17H13BrN2OS

>  <MolWeight>
373.26692

>  <Cat>
P2761

>  <Name>
WAY-352832

>  <Synonyms>
N/A

>  <Target>
FabH,ecKAS III

>  <Form>
free base

>  <CAS>
299405-68-8

>  <URL>
N/A

$$$$
