WAY-332065
 OpenBabel08302521453D

 49 51  0  0  0  0  0  0  0  0999 V2000
    0.0884   -1.0550   -0.4151 C   0  0  0  0  0  0  0  0  0  0  0  0
    0.4907    0.1057   -0.9038 N   0  0  0  0  0  0  0  0  0  0  0  0
    0.1092    1.0370    0.0453 C   0  0  0  0  0  0  0  0  0  0  0  0
   -0.5663   -0.9444    0.7875 O   0  0  0  0  0  0  0  0  0  0  0  0
   -0.5367    0.3893    1.0773 C   0  0  0  0  0  0  0  0  0  0  0  0
   -0.2806    3.2723   -1.5507 S   0  0  3  0  0  0  0  0  0  0  0  0
    0.4310    2.4811   -0.0814 C   0  0  0  0  0  0  0  0  0  0  0  0
    0.2396   -2.4206   -0.9366 C   0  0  0  0  0  0  0  0  0  0  0  0
   -2.0256    2.9227   -1.2666 C   0  0  0  0  0  0  0  0  0  0  0  0
   -2.6005    3.4612    0.0202 C   0  0  0  0  0  0  0  0  0  0  0  0
   -2.6844    4.8282    0.1304 N   0  0  0  0  0  0  0  0  0  0  0  0
   -0.0857    4.7580   -1.4386 O   0  0  0  0  0  0  0  0  0  0  0  0
   -3.0445    2.7013    0.8821 O   0  0  0  0  0  0  0  0  0  0  0  0
    1.3579   -2.8417   -1.6893 C   0  0  0  0  0  0  0  0  0  0  0  0
   -3.4360    5.4708    1.1898 C   0  0  0  0  0  0  0  0  0  0  0  0
   -1.1487    0.8126    2.3498 C   0  0  0  0  0  0  0  0  0  0  0  0
   -2.5852    6.3111    2.1058 C   0  0  0  0  0  0  0  0  0  0  0  0
   -0.7777   -3.3636   -0.6738 C   0  0  0  0  0  0  0  0  0  0  0  0
    2.5474   -1.9734   -2.0038 C   0  0  0  0  0  0  0  0  0  0  0  0
    1.4150   -4.1709   -2.1622 C   0  0  0  0  0  0  0  0  0  0  0  0
   -2.8037    7.6933    2.2212 C   0  0  0  0  0  0  0  0  0  0  0  0
   -1.6153    5.7128    2.9226 C   0  0  0  0  0  0  0  0  0  0  0  0
   -0.7038   -4.6768   -1.1477 C   0  0  0  0  0  0  0  0  0  0  0  0
    0.3931   -5.0797   -1.8966 C   0  0  0  0  0  0  0  0  0  0  0  0
   -2.0790    8.4545    3.1394 C   0  0  0  0  0  0  0  0  0  0  0  0
   -0.8894    6.4760    3.8398 C   0  0  0  0  0  0  0  0  0  0  0  0
   -1.1248    7.8452    3.9509 C   0  0  0  0  0  0  0  0  0  0  0  0
    0.1177    3.0468    0.8002 H   0  0  0  0  0  0  0  0  0  0  0  0
    1.5183    2.5944   -0.1644 H   0  0  0  0  0  0  0  0  0  0  0  0
   -2.5877    3.3543   -2.1013 H   0  0  0  0  0  0  0  0  0  0  0  0
   -2.1814    1.8406   -1.3060 H   0  0  0  0  0  0  0  0  0  0  0  0
   -2.1583    5.4098   -0.5179 H   0  0  0  0  0  0  0  0  0  0  0  0
   -3.9794    4.7314    1.7900 H   0  0  0  0  0  0  0  0  0  0  0  0
   -4.1931    6.0912    0.6976 H   0  0  0  0  0  0  0  0  0  0  0  0
   -2.2104    0.5489    2.3731 H   0  0  0  0  0  0  0  0  0  0  0  0
   -0.6522    0.3276    3.1941 H   0  0  0  0  0  0  0  0  0  0  0  0
   -1.0626    1.8944    2.4920 H   0  0  0  0  0  0  0  0  0  0  0  0
   -1.6516   -3.0756   -0.0905 H   0  0  0  0  0  0  0  0  0  0  0  0
    3.4487   -2.4179   -1.5676 H   0  0  0  0  0  0  0  0  0  0  0  0
    2.6779   -1.9020   -3.0892 H   0  0  0  0  0  0  0  0  0  0  0  0
    2.4784   -0.9597   -1.6137 H   0  0  0  0  0  0  0  0  0  0  0  0
    2.2742   -4.5037   -2.7429 H   0  0  0  0  0  0  0  0  0  0  0  0
   -3.5589    8.1846    1.6105 H   0  0  0  0  0  0  0  0  0  0  0  0
   -1.4404    4.6410    2.8621 H   0  0  0  0  0  0  0  0  0  0  0  0
   -1.5027   -5.3811   -0.9310 H   0  0  0  0  0  0  0  0  0  0  0  0
    0.4586   -6.0986   -2.2705 H   0  0  0  0  0  0  0  0  0  0  0  0
   -2.2666    9.5214    3.2298 H   0  0  0  0  0  0  0  0  0  0  0  0
   -0.1502    5.9999    4.4785 H   0  0  0  0  0  0  0  0  0  0  0  0
   -0.5700    8.4358    4.6755 H   0  0  0  0  0  0  0  0  0  0  0  0
  2  1  2  0  0  0  0
  3  2  1  0  0  0  0
  4  1  1  0  0  0  0
  5  4  1  0  0  0  0
  5  3  2  0  0  0  0
  6  7  1  0  0  0  0
  7  3  1  0  0  0  0
  7 28  1  0  0  0  0
  7 29  1  0  0  0  0
  8  1  1  0  0  0  0
  9  6  1  0  0  0  0
  9 30  1  0  0  0  0
  9 31  1  0  0  0  0
 10  9  1  0  0  0  0
 11 10  1  0  0  0  0
 11 32  1  0  0  0  0
 12  6  2  0  0  0  0
 13 10  2  0  0  0  0
 14  8  2  0  0  0  0
 15 11  1  0  0  0  0
 15 33  1  0  0  0  0
 15 34  1  0  0  0  0
 16  5  1  0  0  0  0
 16 35  1  0  0  0  0
 16 36  1  0  0  0  0
 16 37  1  0  0  0  0
 17 15  1  0  0  0  0
 18  8  1  0  0  0  0
 18 38  1  0  0  0  0
 19 14  1  0  0  0  0
 19 39  1  0  0  0  0
 19 40  1  0  0  0  0
 19 41  1  0  0  0  0
 20 14  1  0  0  0  0
 20 42  1  0  0  0  0
 21 17  2  0  0  0  0
 21 43  1  0  0  0  0
 22 17  1  0  0  0  0
 22 44  1  0  0  0  0
 23 18  2  0  0  0  0
 23 45  1  0  0  0  0
 24 23  1  0  0  0  0
 24 20  2  0  0  0  0
 24 46  1  0  0  0  0
 25 21  1  0  0  0  0
 25 27  2  0  0  0  0
 25 47  1  0  0  0  0
 26 22  2  0  0  0  0
 26 48  1  0  0  0  0
 27 26  1  0  0  0  0
 27 49  1  0  0  0  0
M  END
>  <Mol_ID>
9280

>  <Formula>
C21H22N2O3S

>  <MolWeight>
382.47598

>  <Cat>
P2708

>  <Name>
WAY-332065

>  <Synonyms>
N/A

>  <Target>
beta-catenin

>  <Form>
free base

>  <CAS>
958937-93-4

>  <URL>
N/A

$$$$
