WAY-657136
 OpenBabel08302521423D

 42 45  0  0  0  0  0  0  0  0999 V2000
    3.1691    0.8618   -0.0170 C   0  0  0  0  0  0  0  0  0  0  0  0
    1.0013    0.3124   -0.0203 C   0  0  0  0  0  0  0  0  0  0  0  0
    1.8862    1.3770   -0.0293 O   0  0  0  0  0  0  0  0  0  0  0  0
    3.0991   -0.5307   -0.0204 C   0  0  0  0  0  0  0  0  0  0  0  0
    1.7164   -0.8801   -0.0167 C   0  0  0  0  0  0  0  0  0  0  0  0
    4.3846    1.6960    0.0046 C   0  0  0  0  0  0  0  0  0  0  0  0
    4.1242    3.0450   -0.0096 O   0  0  0  0  0  0  0  0  0  0  0  0
   -0.4338    0.3458   -0.0144 C   0  0  0  0  0  0  0  0  0  0  0  0
    1.0226   -2.1058   -0.0043 C   0  0  0  0  0  0  0  0  0  0  0  0
    5.2557    3.9635    0.0677 C   0  0  3  0  0  0  0  0  0  0  0  0
    4.6734    5.3797    0.2417 C   0  0  0  0  0  0  0  0  0  0  0  0
    5.5137    1.2337    0.0201 O   0  0  0  0  0  0  0  0  0  0  0  0
   -1.0954   -0.9132   -0.0009 C   0  0  0  0  0  0  0  0  0  0  0  0
   -0.3705   -2.1071    0.0042 C   0  0  0  0  0  0  0  0  0  0  0  0
    4.1273    5.7138    1.2980 O   0  0  0  0  0  0  0  0  0  0  0  0
    4.2403   -1.4834   -0.0108 C   0  0  0  0  0  0  0  0  0  0  0  0
   -1.2039    1.5249   -0.0136 C   0  0  0  0  0  0  0  0  0  0  0  0
    4.6378    6.3228   -0.9417 C   0  0  0  0  0  0  0  0  0  0  0  0
    6.2482    3.8202   -1.1010 C   0  0  0  0  0  0  0  0  0  0  0  0
   -2.4978   -0.9601    0.0068 C   0  0  0  0  0  0  0  0  0  0  0  0
   -2.6113    1.4500   -0.0054 C   0  0  0  0  0  0  0  0  0  0  0  0
    5.8670    6.1770   -1.8165 C   0  0  0  0  0  0  0  0  0  0  0  0
    6.0087    4.7412   -2.2848 C   0  0  0  0  0  0  0  0  0  0  0  0
   -3.2503    0.2099    0.0045 C   0  0  0  0  0  0  0  0  0  0  0  0
    1.5585   -3.0527   -0.0003 H   0  0  0  0  0  0  0  0  0  0  0  0
    5.8255    3.7895    0.9911 H   0  0  0  0  0  0  0  0  0  0  0  0
   -0.8906   -3.0664    0.0104 H   0  0  0  0  0  0  0  0  0  0  0  0
    4.8633   -1.3451   -0.8999 H   0  0  0  0  0  0  0  0  0  0  0  0
    4.8550   -1.3339    0.8819 H   0  0  0  0  0  0  0  0  0  0  0  0
    3.9012   -2.5244   -0.0054 H   0  0  0  0  0  0  0  0  0  0  0  0
   -0.7300    2.5003   -0.0202 H   0  0  0  0  0  0  0  0  0  0  0  0
    3.7235    6.1274   -1.5124 H   0  0  0  0  0  0  0  0  0  0  0  0
    4.5879    7.3534   -0.5676 H   0  0  0  0  0  0  0  0  0  0  0  0
    7.2606    4.0219   -0.7228 H   0  0  0  0  0  0  0  0  0  0  0  0
    6.2697    2.7974   -1.4806 H   0  0  0  0  0  0  0  0  0  0  0  0
   -3.0193   -1.9171    0.0153 H   0  0  0  0  0  0  0  0  0  0  0  0
   -3.2096    2.3581   -0.0054 H   0  0  0  0  0  0  0  0  0  0  0  0
    6.7620    6.4731   -1.2542 H   0  0  0  0  0  0  0  0  0  0  0  0
    5.7921    6.8442   -2.6816 H   0  0  0  0  0  0  0  0  0  0  0  0
    6.8600    4.6599   -2.9717 H   0  0  0  0  0  0  0  0  0  0  0  0
    5.1172    4.4233   -2.8358 H   0  0  0  0  0  0  0  0  0  0  0  0
   -4.3383    0.1528    0.0092 H   0  0  0  0  0  0  0  0  0  0  0  0
  2  3  1  0  0  0  0
  3  1  1  0  0  0  0
  4  1  2  0  0  0  0
  5  4  1  0  0  0  0
  5  2  2  0  0  0  0
  6  1  1  0  0  0  0
  7  6  1  0  0  0  0
  8  2  1  0  0  0  0
  9  5  1  0  0  0  0
  9 25  1  0  0  0  0
 10  7  1  0  0  0  0
 10 26  1  0  0  0  0
 11 10  1  0  0  0  0
 12  6  2  0  0  0  0
 13  8  2  0  0  0  0
 13 14  1  0  0  0  0
 14  9  2  0  0  0  0
 14 27  1  0  0  0  0
 15 11  2  0  0  0  0
 16  4  1  0  0  0  0
 16 28  1  0  0  0  0
 16 29  1  0  0  0  0
 16 30  1  0  0  0  0
 17  8  1  0  0  0  0
 17 31  1  0  0  0  0
 18 11  1  0  0  0  0
 18 32  1  0  0  0  0
 18 33  1  0  0  0  0
 19 10  1  0  0  0  0
 19 34  1  0  0  0  0
 19 35  1  0  0  0  0
 20 13  1  0  0  0  0
 20 36  1  0  0  0  0
 21 17  2  0  0  0  0
 21 37  1  0  0  0  0
 22 23  1  0  0  0  0
 22 18  1  0  0  0  0
 22 38  1  0  0  0  0
 22 39  1  0  0  0  0
 23 19  1  0  0  0  0
 23 40  1  0  0  0  0
 23 41  1  0  0  0  0
 24 21  1  0  0  0  0
 24 20  2  0  0  0  0
 24 42  1  0  0  0  0
M  END
>  <Mol_ID>
8540

>  <Formula>
C20H18O4

>  <MolWeight>
322.35452

>  <Cat>
P3151

>  <Name>
WAY-657136

>  <Synonyms>
N/A

>  <Target>
cathepsin B

>  <Form>
free base

>  <CAS>
852932-33-3

>  <URL>
N/A

$$$$
