WAY-299783
 OpenBabel08302521413D

 59 62  0  0  0  0  0  0  0  0999 V2000
   -0.7327   -1.0592   -0.2310 C   0  0  0  0  0  0  0  0  0  0  0  0
    0.6466   -1.1249   -0.0775 C   0  0  0  0  0  0  0  0  0  0  0  0
   -1.1442    0.2637   -0.2926 N   0  0  0  0  0  0  0  0  0  0  0  0
   -1.9054   -2.3304   -0.1268 S   0  0  0  0  0  0  0  0  0  0  0  0
    1.0802    0.1934    0.0263 O   0  0  0  0  0  0  0  0  0  0  0  0
    1.6067   -2.0865    0.0008 N   0  0  0  0  0  0  0  0  0  0  0  0
   -0.0470    0.9633   -0.0948 C   0  0  0  0  0  0  0  0  0  0  0  0
   -2.1543   -3.0827   -1.7102 C   0  0  0  0  0  0  0  0  0  0  0  0
   -1.2959   -3.3278    0.7380 O   0  0  0  0  0  0  0  0  0  0  0  0
   -3.1536   -1.6869    0.2349 O   0  0  0  0  0  0  0  0  0  0  0  0
    2.8580   -1.8986    0.7473 C   0  0  0  0  0  0  0  0  0  0  0  0
    1.5527   -3.3684   -0.7092 C   0  0  0  0  0  0  0  0  0  0  0  0
    0.0440    2.4243    0.0286 C   0  0  0  0  0  0  0  0  0  0  0  0
   -2.3720   -4.4645   -1.7194 C   0  0  0  0  0  0  0  0  0  0  0  0
   -2.1179   -2.3690   -2.9105 C   0  0  0  0  0  0  0  0  0  0  0  0
    4.0586   -2.0902   -0.1902 C   0  0  0  0  0  0  0  0  0  0  0  0
    2.8102   -3.5198   -1.5940 C   0  0  0  0  0  0  0  0  0  0  0  0
   -1.1597    3.1572    0.0924 C   0  0  0  0  0  0  0  0  0  0  0  0
    1.2363    3.1389    0.0837 C   0  0  0  0  0  0  0  0  0  0  0  0
   -2.4492   -5.1548   -2.9246 C   0  0  0  0  0  0  0  0  0  0  0  0
   -2.2196   -3.0705   -4.1241 C   0  0  0  0  0  0  0  0  0  0  0  0
    4.0176   -3.3789   -0.8276 O   0  0  0  0  0  0  0  0  0  0  0  0
   -1.1887    4.5582    0.1835 C   0  0  0  0  0  0  0  0  0  0  0  0
    1.2358    4.5463    0.1935 C   0  0  0  0  0  0  0  0  0  0  0  0
   -2.3353   -4.4714   -4.1376 C   0  0  0  0  0  0  0  0  0  0  0  0
    0.0159    5.2793    0.2049 C   0  0  0  0  0  0  0  0  0  0  0  0
   -2.3597    5.2698    0.2529 O   0  0  0  0  0  0  0  0  0  0  0  0
    2.5017    5.0909    0.2249 O   0  0  0  0  0  0  0  0  0  0  0  0
   -2.3486   -5.2468   -5.4256 C   0  0  0  0  0  0  0  0  0  0  0  0
    0.1467    6.6441    0.2070 O   0  0  0  0  0  0  0  0  0  0  0  0
   -3.5977    4.5750    0.2833 C   0  0  0  0  0  0  0  0  0  0  0  0
    2.6711    6.2942    0.9734 C   0  0  0  0  0  0  0  0  0  0  0  0
   -0.9877    7.4938    0.1505 C   0  0  0  0  0  0  0  0  0  0  0  0
    2.8984   -2.6732    1.5321 H   0  0  0  0  0  0  0  0  0  0  0  0
    2.9144   -0.9274    1.2548 H   0  0  0  0  0  0  0  0  0  0  0  0
    1.5367   -4.1813    0.0304 H   0  0  0  0  0  0  0  0  0  0  0  0
    0.6636   -3.4666   -1.3402 H   0  0  0  0  0  0  0  0  0  0  0  0
   -2.4716   -5.0149   -0.7864 H   0  0  0  0  0  0  0  0  0  0  0  0
   -2.0251   -1.2842   -2.9242 H   0  0  0  0  0  0  0  0  0  0  0  0
    4.0820   -1.3137   -0.9635 H   0  0  0  0  0  0  0  0  0  0  0  0
    4.9940   -2.0315    0.3754 H   0  0  0  0  0  0  0  0  0  0  0  0
    2.8277   -4.5085   -2.0626 H   0  0  0  0  0  0  0  0  0  0  0  0
    2.8151   -2.7713   -2.3942 H   0  0  0  0  0  0  0  0  0  0  0  0
   -2.0879    2.5925    0.0629 H   0  0  0  0  0  0  0  0  0  0  0  0
    2.1943    2.6227    0.0406 H   0  0  0  0  0  0  0  0  0  0  0  0
   -2.5836   -6.2346   -2.9075 H   0  0  0  0  0  0  0  0  0  0  0  0
   -2.1957   -2.5202   -5.0648 H   0  0  0  0  0  0  0  0  0  0  0  0
   -3.2758   -5.0726   -5.9763 H   0  0  0  0  0  0  0  0  0  0  0  0
   -1.4910   -4.9697   -6.0453 H   0  0  0  0  0  0  0  0  0  0  0  0
   -2.2667   -6.3232   -5.2313 H   0  0  0  0  0  0  0  0  0  0  0  0
   -3.7837    4.0681   -0.6687 H   0  0  0  0  0  0  0  0  0  0  0  0
   -3.6472    3.8790    1.1268 H   0  0  0  0  0  0  0  0  0  0  0  0
   -4.3876    5.3192    0.4247 H   0  0  0  0  0  0  0  0  0  0  0  0
    2.3973    7.1719    0.3787 H   0  0  0  0  0  0  0  0  0  0  0  0
    2.1280    6.2675    1.9253 H   0  0  0  0  0  0  0  0  0  0  0  0
    3.7355    6.3992    1.2050 H   0  0  0  0  0  0  0  0  0  0  0  0
   -1.5817    7.3225   -0.7524 H   0  0  0  0  0  0  0  0  0  0  0  0
   -1.5862    7.4153    1.0657 H   0  0  0  0  0  0  0  0  0  0  0  0
   -0.6225    8.5244    0.0989 H   0  0  0  0  0  0  0  0  0  0  0  0
  1  2  2  0  0  0  0
  1  3  1  0  0  0  0
  1  4  1  0  0  0  0
  2  5  1  0  0  0  0
  2  6  1  0  0  0  0
  3  7  2  0  0  0  0
  4  8  1  0  0  0  0
  4  9  2  0  0  0  0
  4 10  2  0  0  0  0
  5  7  1  0  0  0  0
  6 11  1  0  0  0  0
  6 12  1  0  0  0  0
  7 13  1  0  0  0  0
  8 14  2  0  0  0  0
  8 15  1  0  0  0  0
 11 16  1  0  0  0  0
 11 34  1  0  0  0  0
 11 35  1  0  0  0  0
 12 17  1  0  0  0  0
 12 36  1  0  0  0  0
 12 37  1  0  0  0  0
 13 18  2  0  0  0  0
 13 19  1  0  0  0  0
 14 20  1  0  0  0  0
 14 38  1  0  0  0  0
 15 21  2  0  0  0  0
 15 39  1  0  0  0  0
 16 22  1  0  0  0  0
 16 40  1  0  0  0  0
 16 41  1  0  0  0  0
 17 22  1  0  0  0  0
 17 42  1  0  0  0  0
 17 43  1  0  0  0  0
 18 23  1  0  0  0  0
 18 44  1  0  0  0  0
 19 24  2  0  0  0  0
 19 45  1  0  0  0  0
 20 25  2  0  0  0  0
 20 46  1  0  0  0  0
 21 25  1  0  0  0  0
 21 47  1  0  0  0  0
 23 26  2  0  0  0  0
 23 27  1  0  0  0  0
 24 28  1  0  0  0  0
 24 26  1  0  0  0  0
 25 29  1  0  0  0  0
 26 30  1  0  0  0  0
 27 31  1  0  0  0  0
 28 32  1  0  0  0  0
 29 48  1  0  0  0  0
 29 49  1  0  0  0  0
 29 50  1  0  0  0  0
 30 33  1  0  0  0  0
 31 51  1  0  0  0  0
 31 52  1  0  0  0  0
 31 53  1  0  0  0  0
 32 54  1  0  0  0  0
 32 55  1  0  0  0  0
 32 56  1  0  0  0  0
 33 57  1  0  0  0  0
 33 58  1  0  0  0  0
 33 59  1  0  0  0  0
M  END
>  <Mol_ID>
8391

>  <Formula>
C23H26N2O7S

>  <MolWeight>
474.52674

>  <Cat>
P2117

>  <Name>
WAY-299783

>  <Synonyms>
N/A

>  <Target>
Anti-infection

>  <Form>
free base

>  <CAS>
505066-71-7

>  <URL>
N/A

$$$$
