WAY-325354
 OpenBabel08302521433D

 50 52  0  0  0  0  0  0  0  0999 V2000
   -0.0886    1.0723   -0.8071 C   0  0  0  0  0  0  0  0  0  0  0  0
   -0.7501    2.3746   -0.6252 C   0  0  0  0  0  0  0  0  0  0  0  0
   -0.8356   -0.0828   -0.6424 O   0  0  0  0  0  0  0  0  0  0  0  0
    1.2302    0.7026   -1.0323 C   0  0  0  0  0  0  0  0  0  0  0  0
   -0.0554    3.5011   -1.0576 N   0  0  0  0  0  0  0  0  0  0  0  0
    0.0012   -1.1698   -0.7317 C   0  0  0  0  0  0  0  0  0  0  0  0
    1.2840   -0.7209   -0.9874 C   0  0  0  0  0  0  0  0  0  0  0  0
   -1.8550    2.4766   -0.0981 O   0  0  0  0  0  0  0  0  0  0  0  0
   -0.9034   -3.3296   -1.4767 O   0  0  0  0  0  0  0  0  0  0  0  0
   -2.2250   -3.7272   -1.5374 C   0  0  0  0  0  0  0  0  0  0  0  0
   -2.5941   -5.0340   -1.9162 C   0  0  0  0  0  0  0  0  0  0  0  0
   -0.5526   -2.5160   -0.3343 C   0  0  0  0  0  0  0  0  0  0  0  0
   -0.4378    4.9245   -0.8500 C   0  0  0  0  0  0  0  0  0  0  0  0
   -1.7854   -6.1141   -2.1529 O   0  0  0  0  0  0  0  0  0  0  0  0
   -3.2415   -2.7738   -1.3674 C   0  0  0  0  0  0  0  0  0  0  0  0
   -3.9482   -5.3447   -2.1416 C   0  0  0  0  0  0  0  0  0  0  0  0
   -0.6064   -6.2186   -1.3746 C   0  0  0  0  0  0  0  0  0  0  0  0
   -0.2507    5.3764    0.6075 C   0  0  0  0  0  0  0  0  0  0  0  0
   -1.7674    5.3494   -1.5048 C   0  0  0  0  0  0  0  0  0  0  0  0
   -4.5866   -3.1051   -1.5671 C   0  0  0  0  0  0  0  0  0  0  0  0
   -4.9429   -4.3847   -1.9652 C   0  0  0  0  0  0  0  0  0  0  0  0
   -3.0032    5.4196   -0.6004 C   0  0  0  0  0  0  0  0  0  0  0  0
   -0.6866    6.8214    0.8918 C   0  0  0  0  0  0  0  0  0  0  0  0
   -2.1527    6.9372    1.3034 C   0  0  0  0  0  0  0  0  0  0  0  0
   -3.1534    6.7316    0.1725 C   0  0  0  0  0  0  0  0  0  0  0  0
    2.0730    1.3720   -1.1267 H   0  0  0  0  0  0  0  0  0  0  0  0
    0.7969    3.3435   -1.5783 H   0  0  0  0  0  0  0  0  0  0  0  0
    2.1718   -1.3379   -1.0385 H   0  0  0  0  0  0  0  0  0  0  0  0
    0.2445   -3.0620    0.1862 H   0  0  0  0  0  0  0  0  0  0  0  0
   -1.3661   -2.4061    0.3918 H   0  0  0  0  0  0  0  0  0  0  0  0
    0.3355    5.4569   -1.4250 H   0  0  0  0  0  0  0  0  0  0  0  0
   -3.0008   -1.7460   -1.1139 H   0  0  0  0  0  0  0  0  0  0  0  0
   -4.2271   -6.3466   -2.4605 H   0  0  0  0  0  0  0  0  0  0  0  0
    0.2246   -5.7569   -1.9116 H   0  0  0  0  0  0  0  0  0  0  0  0
   -0.7171   -5.8041   -0.3678 H   0  0  0  0  0  0  0  0  0  0  0  0
   -0.3805   -7.2858   -1.2625 H   0  0  0  0  0  0  0  0  0  0  0  0
   -0.7546    4.6897    1.2966 H   0  0  0  0  0  0  0  0  0  0  0  0
    0.8196    5.2997    0.8422 H   0  0  0  0  0  0  0  0  0  0  0  0
   -1.6256    6.3474   -1.9465 H   0  0  0  0  0  0  0  0  0  0  0  0
   -1.9791    4.6867   -2.3519 H   0  0  0  0  0  0  0  0  0  0  0  0
   -5.3525   -2.3428   -1.4366 H   0  0  0  0  0  0  0  0  0  0  0  0
   -5.9837   -4.6345   -2.1555 H   0  0  0  0  0  0  0  0  0  0  0  0
   -3.0453    4.5763    0.0920 H   0  0  0  0  0  0  0  0  0  0  0  0
   -3.8856    5.3337   -1.2477 H   0  0  0  0  0  0  0  0  0  0  0  0
   -0.0865    7.1977    1.7306 H   0  0  0  0  0  0  0  0  0  0  0  0
   -0.4713    7.4817    0.0428 H   0  0  0  0  0  0  0  0  0  0  0  0
   -2.3653    6.2309    2.1154 H   0  0  0  0  0  0  0  0  0  0  0  0
   -2.3205    7.9377    1.7248 H   0  0  0  0  0  0  0  0  0  0  0  0
   -4.1605    6.7571    0.6110 H   0  0  0  0  0  0  0  0  0  0  0  0
   -3.1072    7.5826   -0.5183 H   0  0  0  0  0  0  0  0  0  0  0  0
  2  1  1  0  0  0  0
  3  1  1  0  0  0  0
  4  1  2  0  0  0  0
  4 26  1  0  0  0  0
  5  2  1  0  0  0  0
  5 27  1  0  0  0  0
  6  3  1  0  0  0  0
  7  4  1  0  0  0  0
  7  6  2  0  0  0  0
  7 28  1  0  0  0  0
  8  2  2  0  0  0  0
  9 12  1  0  0  0  0
 10  9  1  0  0  0  0
 11 10  2  0  0  0  0
 12  6  1  0  0  0  0
 12 29  1  0  0  0  0
 12 30  1  0  0  0  0
 13  5  1  0  0  0  0
 13 31  1  0  0  0  0
 14 11  1  0  0  0  0
 15 10  1  0  0  0  0
 15 32  1  0  0  0  0
 16 11  1  0  0  0  0
 16 21  2  0  0  0  0
 16 33  1  0  0  0  0
 17 14  1  0  0  0  0
 17 34  1  0  0  0  0
 17 35  1  0  0  0  0
 17 36  1  0  0  0  0
 18 13  1  0  0  0  0
 18 37  1  0  0  0  0
 18 38  1  0  0  0  0
 19 13  1  0  0  0  0
 19 39  1  0  0  0  0
 19 40  1  0  0  0  0
 20 15  2  0  0  0  0
 20 41  1  0  0  0  0
 21 20  1  0  0  0  0
 21 42  1  0  0  0  0
 22 19  1  0  0  0  0
 22 43  1  0  0  0  0
 22 44  1  0  0  0  0
 23 18  1  0  0  0  0
 23 45  1  0  0  0  0
 23 46  1  0  0  0  0
 24 23  1  0  0  0  0
 24 25  1  0  0  0  0
 24 47  1  0  0  0  0
 24 48  1  0  0  0  0
 25 22  1  0  0  0  0
 25 49  1  0  0  0  0
 25 50  1  0  0  0  0
M  END
>  <Mol_ID>
8681

>  <Formula>
C20H25NO4

>  <MolWeight>
343.4168

>  <Cat>
P2380

>  <Name>
WAY-325354

>  <Synonyms>
N/A

>  <Target>
11¦Â-hydroxysteroid dehydrogenase type 1

>  <Form>
free base

>  <CAS>
438464-77-8

>  <URL>
N/A

$$$$
