WAY-606483
 OpenBabel08302521433D

 48 51  0  0  0  0  0  0  0  0999 V2000
    1.0288   -0.1362   -0.0205 S   0  0  0  0  0  0  0  0  0  0  0  0
   -1.3881    5.3040   -3.4520 N   0  0  0  0  0  0  0  0  0  0  0  0
   -0.8140    5.2731   -2.1771 C   0  0  0  0  0  0  0  0  0  0  0  0
   -1.7448    6.4767   -4.1802 C   0  0  0  0  0  0  0  0  0  0  0  0
    2.1421   -0.5417   -1.2069 N   0  0  0  0  0  0  0  0  0  0  0  0
   -1.8102    4.1638   -4.2690 C   0  0  0  0  0  0  0  0  0  0  0  0
    0.4244    1.4454   -0.5667 C   0  0  0  0  0  0  0  0  0  0  0  0
    1.7091    0.0538    1.2376 O   0  0  0  0  0  0  0  0  0  0  0  0
   -0.0576   -1.0868   -0.1608 O   0  0  0  0  0  0  0  0  0  0  0  0
   -0.4648    3.9243   -1.5632 C   0  0  0  0  0  0  0  0  0  0  0  0
   -0.5117    6.2689   -1.5260 O   0  0  0  0  0  0  0  0  0  0  0  0
   -2.3076    6.1144   -5.4125 C   0  0  0  0  0  0  0  0  0  0  0  0
   -2.2429    4.6470   -5.6407 C   0  0  0  0  0  0  0  0  0  0  0  0
   -0.7170    1.4996   -1.3516 C   0  0  0  0  0  0  0  0  0  0  0  0
    1.0763    2.6229   -0.1889 C   0  0  0  0  0  0  0  0  0  0  0  0
    0.6429    3.8553   -0.7030 C   0  0  0  0  0  0  0  0  0  0  0  0
   -1.1765    2.7390   -1.7979 C   0  0  0  0  0  0  0  0  0  0  0  0
    3.2489    0.2906   -1.4968 C   0  0  0  0  0  0  0  0  0  0  0  0
    5.4904    1.8384   -2.1489 C   0  0  0  0  0  0  0  0  0  0  0  0
    4.4339    0.1256   -0.7879 C   0  0  0  0  0  0  0  0  0  0  0  0
    3.1688    1.2328   -2.5211 C   0  0  0  0  0  0  0  0  0  0  0  0
    5.5552    0.8914   -1.1191 C   0  0  0  0  0  0  0  0  0  0  0  0
    4.2844    2.0121   -2.8390 C   0  0  0  0  0  0  0  0  0  0  0  0
   -1.6166    7.8157   -3.8536 C   0  0  0  0  0  0  0  0  0  0  0  0
   -2.8002    7.0474   -6.3101 C   0  0  0  0  0  0  0  0  0  0  0  0
    6.6949    2.6524   -2.5238 C   0  0  0  0  0  0  0  0  0  0  0  0
   -2.0941    8.7729   -4.7638 C   0  0  0  0  0  0  0  0  0  0  0  0
   -2.6957    8.3908   -5.9746 C   0  0  0  0  0  0  0  0  0  0  0  0
    1.8509   -1.2470   -1.8809 H   0  0  0  0  0  0  0  0  0  0  0  0
   -1.0097    3.4227   -4.3342 H   0  0  0  0  0  0  0  0  0  0  0  0
   -2.7003    3.7433   -3.7919 H   0  0  0  0  0  0  0  0  0  0  0  0
   -3.2096    4.2148   -5.9158 H   0  0  0  0  0  0  0  0  0  0  0  0
   -1.4928    4.3986   -6.3958 H   0  0  0  0  0  0  0  0  0  0  0  0
   -1.2636    0.5982   -1.6223 H   0  0  0  0  0  0  0  0  0  0  0  0
    1.9424    2.5854    0.4699 H   0  0  0  0  0  0  0  0  0  0  0  0
    1.1864    4.7604   -0.4333 H   0  0  0  0  0  0  0  0  0  0  0  0
   -2.1154    2.7203   -2.3260 H   0  0  0  0  0  0  0  0  0  0  0  0
    4.4987   -0.6084    0.0116 H   0  0  0  0  0  0  0  0  0  0  0  0
    2.2462    1.3792   -3.0745 H   0  0  0  0  0  0  0  0  0  0  0  0
    6.4815    0.7359   -0.5706 H   0  0  0  0  0  0  0  0  0  0  0  0
    4.2111    2.7505   -3.6354 H   0  0  0  0  0  0  0  0  0  0  0  0
   -1.1582    8.1376   -2.9257 H   0  0  0  0  0  0  0  0  0  0  0  0
   -3.2456    6.7350   -7.2492 H   0  0  0  0  0  0  0  0  0  0  0  0
    6.9762    2.4525   -3.5633 H   0  0  0  0  0  0  0  0  0  0  0  0
    6.4848    3.7198   -2.4058 H   0  0  0  0  0  0  0  0  0  0  0  0
    7.5557    2.4078   -1.8925 H   0  0  0  0  0  0  0  0  0  0  0  0
   -1.9993    9.8306   -4.5318 H   0  0  0  0  0  0  0  0  0  0  0  0
   -3.0701    9.1457   -6.6613 H   0  0  0  0  0  0  0  0  0  0  0  0
  2  3  1  0  0  0  0
  3 10  1  0  0  0  0
  4  2  1  0  0  0  0
  5  1  1  0  0  0  0
  5 29  1  0  0  0  0
  6  2  1  0  0  0  0
  6 30  1  0  0  0  0
  6 31  1  0  0  0  0
  7  1  1  0  0  0  0
  8  1  2  0  0  0  0
  9  1  2  0  0  0  0
 10 16  1  0  0  0  0
 10 17  2  0  0  0  0
 11  3  2  0  0  0  0
 12  4  2  0  0  0  0
 12 13  1  0  0  0  0
 13  6  1  0  0  0  0
 13 32  1  0  0  0  0
 13 33  1  0  0  0  0
 14  7  2  0  0  0  0
 14 34  1  0  0  0  0
 15  7  1  0  0  0  0
 15 35  1  0  0  0  0
 16 15  2  0  0  0  0
 16 36  1  0  0  0  0
 17 14  1  0  0  0  0
 17 37  1  0  0  0  0
 18  5  1  0  0  0  0
 19 23  2  0  0  0  0
 20 18  1  0  0  0  0
 20 38  1  0  0  0  0
 21 18  2  0  0  0  0
 21 39  1  0  0  0  0
 22 20  2  0  0  0  0
 22 19  1  0  0  0  0
 22 40  1  0  0  0  0
 23 21  1  0  0  0  0
 23 41  1  0  0  0  0
 24  4  1  0  0  0  0
 24 42  1  0  0  0  0
 25 12  1  0  0  0  0
 25 43  1  0  0  0  0
 26 19  1  0  0  0  0
 26 44  1  0  0  0  0
 26 45  1  0  0  0  0
 26 46  1  0  0  0  0
 27 24  2  0  0  0  0
 27 47  1  0  0  0  0
 28 27  1  0  0  0  0
 28 25  2  0  0  0  0
 28 48  1  0  0  0  0
M  END
>  <Mol_ID>
8717

>  <Formula>
C22H20N2O3S

>  <MolWeight>
392.4708

>  <Cat>
P2863

>  <Name>
WAY-606483

>  <Synonyms>
N/A

>  <Target>
Mycobacterium tuberculosis type II dehydroquinase

>  <Form>
free base

>  <CAS>
380435-19-8

>  <URL>
N/A

$$$$
