WAY-232897
 OpenBabel08302521413D

 42 45  0  0  0  0  0  0  0  0999 V2000
    6.1504   -2.2281    4.1005 C   0  0  0  0  0  0  0  0  0  0  0  0
    5.3278   -2.9278    3.2382 C   0  0  0  0  0  0  0  0  0  0  0  0
    6.3026   -3.0049    5.2804 C   0  0  0  0  0  0  0  0  0  0  0  0
    6.6499   -1.0254    3.7212 N   0  0  0  0  0  0  0  0  0  0  0  0
    4.9690   -4.0919    3.8497 N   0  0  0  0  0  0  0  0  0  0  0  0
    4.9491   -2.5402    2.0112 N   0  0  0  0  0  0  0  0  0  0  0  0
    5.5546   -4.1746    5.0941 C   0  0  0  0  0  0  0  0  0  0  0  0
    7.0064   -2.8425    6.4899 C   0  0  0  0  0  0  0  0  0  0  0  0
    6.3005   -0.6009    2.5005 N   0  0  0  0  0  0  0  0  0  0  0  0
    5.4819   -1.3407    1.7030 C   0  0  0  0  0  0  0  0  0  0  0  0
    5.4794   -5.1860    6.0573 C   0  0  0  0  0  0  0  0  0  0  0  0
    6.9376   -3.8445    7.4650 C   0  0  0  0  0  0  0  0  0  0  0  0
    5.0814   -0.7442    0.0746 S   0  0  0  0  0  0  0  0  0  0  0  0
    6.1855   -4.9991    7.2486 C   0  0  0  0  0  0  0  0  0  0  0  0
    6.0105    0.8134    0.0725 C   0  0  0  0  0  0  0  0  0  0  0  0
    5.7030    1.5930   -1.1892 C   0  0  0  0  0  0  0  0  0  0  0  0
    6.1031    0.9641   -2.3658 N   0  0  0  0  0  0  0  0  0  0  0  0
    5.1488    2.6881   -1.1103 O   0  0  0  0  0  0  0  0  0  0  0  0
    5.8819    1.4832   -3.6598 C   0  0  0  0  0  0  0  0  0  0  0  0
    5.6446    2.8386   -3.8835 C   0  0  0  0  0  0  0  0  0  0  0  0
    5.8511    0.6078   -4.7479 C   0  0  0  0  0  0  0  0  0  0  0  0
    5.2356    3.3026   -5.1342 C   0  0  0  0  0  0  0  0  0  0  0  0
    5.4372    1.0703   -6.0066 C   0  0  0  0  0  0  0  0  0  0  0  0
    5.0738    2.4138   -6.1950 C   0  0  0  0  0  0  0  0  0  0  0  0
    4.4880    2.8254   -7.5074 C   0  0  0  0  0  0  0  0  0  0  0  0
    3.9413    4.2195   -7.7108 C   0  0  0  0  0  0  0  0  0  0  0  0
    4.4131    1.9973   -8.4160 O   0  0  0  0  0  0  0  0  0  0  0  0
    4.3712   -4.7890    3.4321 H   0  0  0  0  0  0  0  0  0  0  0  0
    7.5944   -1.9456    6.6625 H   0  0  0  0  0  0  0  0  0  0  0  0
    4.8954   -6.0866    5.8944 H   0  0  0  0  0  0  0  0  0  0  0  0
    7.4781   -3.7211    8.4000 H   0  0  0  0  0  0  0  0  0  0  0  0
    6.1480   -5.7649    8.0178 H   0  0  0  0  0  0  0  0  0  0  0  0
    5.7060    1.4326    0.9237 H   0  0  0  0  0  0  0  0  0  0  0  0
    7.0881    0.6347    0.1286 H   0  0  0  0  0  0  0  0  0  0  0  0
    6.3092   -0.0269   -2.2983 H   0  0  0  0  0  0  0  0  0  0  0  0
    5.7469    3.5697   -3.0865 H   0  0  0  0  0  0  0  0  0  0  0  0
    6.0825   -0.4479   -4.6305 H   0  0  0  0  0  0  0  0  0  0  0  0
    5.0297    4.3627   -5.2144 H   0  0  0  0  0  0  0  0  0  0  0  0
    5.3602    0.3640   -6.8328 H   0  0  0  0  0  0  0  0  0  0  0  0
    4.4248    4.6612   -8.5863 H   0  0  0  0  0  0  0  0  0  0  0  0
    2.8621    4.1551   -7.8770 H   0  0  0  0  0  0  0  0  0  0  0  0
    4.1029    4.8971   -6.8756 H   0  0  0  0  0  0  0  0  0  0  0  0
  1  2  1  0  0  0  0
  1  3  1  0  0  0  0
  1  4  2  0  0  0  0
  2  5  1  0  0  0  0
  2  6  2  0  0  0  0
  3  7  2  0  0  0  0
  3  8  1  0  0  0  0
  4  9  1  0  0  0  0
  5  7  1  0  0  0  0
  5 28  1  0  0  0  0
  6 10  1  0  0  0  0
  7 11  1  0  0  0  0
  8 12  2  0  0  0  0
  8 29  1  0  0  0  0
  9 10  2  0  0  0  0
 10 13  1  0  0  0  0
 11 14  2  0  0  0  0
 11 30  1  0  0  0  0
 12 14  1  0  0  0  0
 12 31  1  0  0  0  0
 13 15  1  0  0  0  0
 14 32  1  0  0  0  0
 15 16  1  0  0  0  0
 15 33  1  0  0  0  0
 15 34  1  0  0  0  0
 16 17  1  0  0  0  0
 16 18  2  0  0  0  0
 17 19  1  0  0  0  0
 17 35  1  0  0  0  0
 19 20  2  0  0  0  0
 19 21  1  0  0  0  0
 20 22  1  0  0  0  0
 20 36  1  0  0  0  0
 21 23  2  0  0  0  0
 21 37  1  0  0  0  0
 22 24  2  0  0  0  0
 22 38  1  0  0  0  0
 23 24  1  0  0  0  0
 23 39  1  0  0  0  0
 24 25  1  0  0  0  0
 25 26  1  0  0  0  0
 25 27  2  0  0  0  0
 26 40  1  0  0  0  0
 26 41  1  0  0  0  0
 26 42  1  0  0  0  0
M  END
>  <Mol_ID>
8378

>  <Formula>
C19H15N5O2S

>  <MolWeight>
377.4197

>  <Cat>
P2066

>  <Name>
WAY-232897

>  <Synonyms>
N/A

>  <Target>
others

>  <Form>
free base

>  <CAS>
149045-58-9

>  <URL>
N/A

$$$$
