WAY-301242
 OpenBabel08302521413D

 41 43  0  0  0  0  0  0  0  0999 V2000
    1.6795   -0.5137   -1.4061 C   0  0  0  0  0  0  0  0  0  0  0  0
    1.4058   -1.3386   -0.3358 N   0  0  0  0  0  0  0  0  0  0  0  0
    0.6865    0.4615   -1.3434 C   0  0  0  0  0  0  0  0  0  0  0  0
    2.6796   -0.5092   -2.3871 C   0  0  0  0  0  0  0  0  0  0  0  0
    2.2099   -2.4876    0.0527 C   0  0  0  0  0  0  0  0  0  0  0  0
    0.2839   -0.8603    0.2832 C   0  0  0  0  0  0  0  0  0  0  0  0
   -0.1818    0.2143   -0.3117 N   0  0  0  0  0  0  0  0  0  0  0  0
    0.6899    1.5129   -2.2711 C   0  0  0  0  0  0  0  0  0  0  0  0
    2.6666    0.5502   -3.3038 C   0  0  0  0  0  0  0  0  0  0  0  0
    1.6701   -3.2450    1.2562 C   0  0  0  0  0  0  0  0  0  0  0  0
    1.6953    1.5506   -3.2443 C   0  0  0  0  0  0  0  0  0  0  0  0
    0.8240   -4.3477    1.0534 N   0  0  0  0  0  0  0  0  0  0  0  0
    1.9641   -2.8146    2.3788 O   0  0  0  0  0  0  0  0  0  0  0  0
    0.2535   -4.9534    2.2203 C   0  0  0  0  0  0  0  0  0  0  0  0
    0.5248   -4.9634   -0.2717 C   0  0  0  0  0  0  0  0  0  0  0  0
   -1.1331   -5.0690    2.3705 C   0  0  0  0  0  0  0  0  0  0  0  0
    1.0879   -5.4354    3.2380 C   0  0  0  0  0  0  0  0  0  0  0  0
    0.2374   -6.4763   -0.2355 C   0  0  0  0  0  0  0  0  0  0  0  0
   -0.5684   -4.2335   -1.0539 C   0  0  0  0  0  0  0  0  0  0  0  0
   -1.6736   -5.6600    3.5157 C   0  0  0  0  0  0  0  0  0  0  0  0
    0.5470   -6.0421    4.3741 C   0  0  0  0  0  0  0  0  0  0  0  0
   -0.8343   -6.1520    4.5139 C   0  0  0  0  0  0  0  0  0  0  0  0
    3.4433   -1.2769   -2.4378 H   0  0  0  0  0  0  0  0  0  0  0  0
    2.3567   -3.1155   -0.8263 H   0  0  0  0  0  0  0  0  0  0  0  0
    3.1959   -2.0921    0.3289 H   0  0  0  0  0  0  0  0  0  0  0  0
   -0.1599   -1.3188    1.1589 H   0  0  0  0  0  0  0  0  0  0  0  0
   -0.0699    2.2846   -2.2172 H   0  0  0  0  0  0  0  0  0  0  0  0
    3.4346    0.5996   -4.0742 H   0  0  0  0  0  0  0  0  0  0  0  0
    1.7169    2.3713   -3.9576 H   0  0  0  0  0  0  0  0  0  0  0  0
    1.4446   -4.8829   -0.8585 H   0  0  0  0  0  0  0  0  0  0  0  0
   -1.8120   -4.6683    1.6257 H   0  0  0  0  0  0  0  0  0  0  0  0
    2.1682   -5.3546    3.1496 H   0  0  0  0  0  0  0  0  0  0  0  0
   -0.6996   -6.7118    0.2766 H   0  0  0  0  0  0  0  0  0  0  0  0
    0.1575   -6.8732   -1.2532 H   0  0  0  0  0  0  0  0  0  0  0  0
    1.0489   -7.0111    0.2681 H   0  0  0  0  0  0  0  0  0  0  0  0
   -0.2779   -3.2095   -1.2905 H   0  0  0  0  0  0  0  0  0  0  0  0
   -0.7574   -4.7365   -2.0086 H   0  0  0  0  0  0  0  0  0  0  0  0
   -1.5123   -4.1919   -0.5059 H   0  0  0  0  0  0  0  0  0  0  0  0
   -2.7529   -5.7240    3.6368 H   0  0  0  0  0  0  0  0  0  0  0  0
    1.2056   -6.4200    5.1515 H   0  0  0  0  0  0  0  0  0  0  0  0
   -1.2558   -6.6097    5.4051 H   0  0  0  0  0  0  0  0  0  0  0  0
  1  2  1  0  0  0  0
  1  3  1  0  0  0  0
  1  4  2  0  0  0  0
  2  5  1  0  0  0  0
  2  6  1  0  0  0  0
  3  7  1  0  0  0  0
  3  8  2  0  0  0  0
  4  9  1  0  0  0  0
  4 23  1  0  0  0  0
  5 10  1  0  0  0  0
  5 24  1  0  0  0  0
  5 25  1  0  0  0  0
  6  7  2  0  0  0  0
  6 26  1  0  0  0  0
  8 11  1  0  0  0  0
  8 27  1  0  0  0  0
  9 11  2  0  0  0  0
  9 28  1  0  0  0  0
 10 12  1  0  0  0  0
 10 13  2  0  0  0  0
 11 29  1  0  0  0  0
 12 14  1  0  0  0  0
 12 15  1  0  0  0  0
 14 16  2  0  0  0  0
 14 17  1  0  0  0  0
 15 18  1  0  0  0  0
 15 19  1  0  0  0  0
 15 30  1  0  0  0  0
 16 20  1  0  0  0  0
 16 31  1  0  0  0  0
 17 21  2  0  0  0  0
 17 32  1  0  0  0  0
 18 33  1  0  0  0  0
 18 34  1  0  0  0  0
 18 35  1  0  0  0  0
 19 36  1  0  0  0  0
 19 37  1  0  0  0  0
 19 38  1  0  0  0  0
 20 22  2  0  0  0  0
 20 39  1  0  0  0  0
 21 22  1  0  0  0  0
 21 40  1  0  0  0  0
 22 41  1  0  0  0  0
M  END
>  <Mol_ID>
8429

>  <Formula>
C18H19N3O

>  <MolWeight>
293.36296

>  <Cat>
P2162

>  <Name>
WAY-301242

>  <Synonyms>
N/A

>  <Target>
tubulin,GEF-H1

>  <Form>
free base

>  <CAS>
299442-28-7

>  <URL>
N/A

$$$$
