WAY-638459
 OpenBabel08302521423D

 50 53  0  0  0  0  0  0  0  0999 V2000
   -0.0020   -1.6473    0.1213 N   0  0  0  0  0  0  0  0  0  0  0  0
    5.7025    5.9417    5.8043 C   0  0  0  0  0  0  0  0  0  0  0  0
    6.6764    5.8473    6.8480 N   0  3  0  0  0  0  0  0  0  0  0  0
    0.6773    0.4864    0.2068 C   0  0  0  0  0  0  0  0  0  0  0  0
    1.1136   -0.8390    0.2516 C   0  0  0  0  0  0  0  0  0  0  0  0
   -1.1513   -0.8805    0.0650 C   0  0  0  0  0  0  0  0  0  0  0  0
    5.9858    5.3128    4.6295 O   0  0  0  0  0  0  0  0  0  0  0  0
    4.9005    5.5196    3.8049 C   0  0  0  0  0  0  0  0  0  0  0  0
   -0.7509    0.4575    0.0976 C   0  0  0  0  0  0  0  0  0  0  0  0
    4.8424    4.9253    2.4832 C   0  0  0  0  0  0  0  0  0  0  0  0
    5.2326    2.2323    1.0012 C   0  0  0  0  0  0  0  0  0  0  0  0
    4.4779    6.5644    5.7656 C   0  0  0  0  0  0  0  0  0  0  0  0
    3.9663    6.3001    4.4711 C   0  0  0  0  0  0  0  0  0  0  0  0
    6.0144    4.3155    2.1754 O   0  0  0  0  0  0  0  0  0  0  0  0
    3.9166    2.3266    0.5749 N   0  0  0  0  0  0  0  0  0  0  0  0
    2.4710   -1.1524    0.3947 C   0  0  0  0  0  0  0  0  0  0  0  0
    1.6375    1.5323    0.2891 C   0  0  0  0  0  0  0  0  0  0  0  0
    6.3816    6.4068    7.9161 O   0  5  0  0  0  0  0  0  0  0  0  0
    6.0761    3.5333    0.9734 C   0  0  3  0  0  0  0  0  0  0  0  0
    7.7220    5.2326    6.6119 O   0  0  0  0  0  0  0  0  0  0  0  0
    3.0008    1.2413    0.4586 C   0  0  0  0  0  0  0  0  0  0  0  0
    3.8658    4.9525    1.7415 O   0  0  0  0  0  0  0  0  0  0  0  0
    5.7559    1.2084    1.4428 O   0  0  0  0  0  0  0  0  0  0  0  0
    3.3929   -0.0981    0.4979 C   0  0  0  0  0  0  0  0  0  0  0  0
    0.0221   -3.0970   -0.0170 C   0  0  0  0  0  0  0  0  0  0  0  0
   -2.5056   -1.2512   -0.0190 C   0  0  0  0  0  0  0  0  0  0  0  0
   -1.7423    1.4607    0.0351 C   0  0  0  0  0  0  0  0  0  0  0  0
    5.9725    4.3622   -0.3040 C   0  0  0  0  0  0  0  0  0  0  0  0
   -0.1901   -3.8356    1.2938 C   0  0  0  0  0  0  0  0  0  0  0  0
   -3.4662   -0.2377   -0.0682 C   0  0  0  0  0  0  0  0  0  0  0  0
   -3.0921    1.1011   -0.0444 C   0  0  0  0  0  0  0  0  0  0  0  0
    4.0158    7.1253    6.5663 H   0  0  0  0  0  0  0  0  0  0  0  0
    3.0164    6.6200    4.0621 H   0  0  0  0  0  0  0  0  0  0  0  0
    3.5261    3.2627    0.4878 H   0  0  0  0  0  0  0  0  0  0  0  0
    2.8201   -2.1793    0.4383 H   0  0  0  0  0  0  0  0  0  0  0  0
    1.2895    2.5597    0.2467 H   0  0  0  0  0  0  0  0  0  0  0  0
    7.1101    3.1590    0.9626 H   0  0  0  0  0  0  0  0  0  0  0  0
    4.4370   -0.3780    0.6011 H   0  0  0  0  0  0  0  0  0  0  0  0
   -0.7549   -3.3755   -0.7380 H   0  0  0  0  0  0  0  0  0  0  0  0
    0.9783   -3.3837   -0.4663 H   0  0  0  0  0  0  0  0  0  0  0  0
   -2.8111   -2.2926   -0.0374 H   0  0  0  0  0  0  0  0  0  0  0  0
   -1.4607    2.5087    0.0574 H   0  0  0  0  0  0  0  0  0  0  0  0
    6.1286    3.7359   -1.1886 H   0  0  0  0  0  0  0  0  0  0  0  0
    5.0058    4.8589   -0.4164 H   0  0  0  0  0  0  0  0  0  0  0  0
    6.7331    5.1517   -0.3002 H   0  0  0  0  0  0  0  0  0  0  0  0
    0.5984   -3.6002    2.0154 H   0  0  0  0  0  0  0  0  0  0  0  0
   -1.1518   -3.5776    1.7490 H   0  0  0  0  0  0  0  0  0  0  0  0
   -0.1804   -4.9173    1.1207 H   0  0  0  0  0  0  0  0  0  0  0  0
   -4.5198   -0.5018   -0.1254 H   0  0  0  0  0  0  0  0  0  0  0  0
   -3.8532    1.8761   -0.0833 H   0  0  0  0  0  0  0  0  0  0  0  0
  2  7  1  0  0  0  0
  2 12  2  0  0  0  0
  3  2  1  0  0  0  0
  4  5  2  0  0  0  0
  4  9  1  0  0  0  0
  5  1  1  0  0  0  0
  6  1  1  0  0  0  0
  7  8  1  0  0  0  0
  8 10  1  0  0  0  0
  9  6  2  0  0  0  0
 10 14  1  0  0  0  0
 11 15  1  0  0  0  0
 12 13  1  0  0  0  0
 12 32  1  0  0  0  0
 13  8  2  0  0  0  0
 13 33  1  0  0  0  0
 14 19  1  0  0  0  0
 15 21  1  0  0  0  0
 15 34  1  0  0  0  0
 16  5  1  0  0  0  0
 16 35  1  0  0  0  0
 17  4  1  0  0  0  0
 17 36  1  0  0  0  0
 18  3  1  0  0  0  0
 19 11  1  0  0  0  0
 19 37  1  0  0  0  0
 20  3  2  0  0  0  0
 21 24  1  0  0  0  0
 21 17  2  0  0  0  0
 22 10  2  0  0  0  0
 23 11  2  0  0  0  0
 24 16  2  0  0  0  0
 24 38  1  0  0  0  0
 25  1  1  0  0  0  0
 25 39  1  0  0  0  0
 25 40  1  0  0  0  0
 26  6  1  0  0  0  0
 26 41  1  0  0  0  0
 27  9  1  0  0  0  0
 27 42  1  0  0  0  0
 28 19  1  0  0  0  0
 28 43  1  0  0  0  0
 28 44  1  0  0  0  0
 28 45  1  0  0  0  0
 29 25  1  0  0  0  0
 29 46  1  0  0  0  0
 29 47  1  0  0  0  0
 29 48  1  0  0  0  0
 30 26  2  0  0  0  0
 30 49  1  0  0  0  0
 31 30  1  0  0  0  0
 31 27  2  0  0  0  0
 31 50  1  0  0  0  0
M  CHG  2   3   1  18  -1
M  END
>  <Mol_ID>
8516

>  <Formula>
C22H19N3O6

>  <MolWeight>
421.40276

>  <Cat>
P3042

>  <Name>
WAY-638459

>  <Synonyms>
N/A

>  <Target>
p53

>  <Form>
free base

>  <CAS>
794553-31-4

>  <URL>
N/A

$$$$
