WAY-325463
 OpenBabel08302521433D

 53 55  0  0  0  0  0  0  0  0999 V2000
    0.9337   -0.1425   -0.1293 C   0  0  0  0  0  0  0  0  0  0  0  0
    2.3202    0.0777   -0.0126 N   0  0  0  0  0  0  0  0  0  0  0  0
    0.1733   -0.7278    1.0057 C   0  0  0  0  0  0  0  0  0  0  0  0
    0.2932    0.1694   -1.1336 O   0  0  0  0  0  0  0  0  0  0  0  0
    0.4695   -0.3605    2.3189 C   0  0  0  0  0  0  0  0  0  0  0  0
    1.5837   -0.3362    5.0086 O   0  0  0  0  0  0  0  0  0  0  0  0
    1.9497    0.0392    6.2820 C   0  0  0  0  0  0  0  0  0  0  0  0
   -0.1852   -0.9405    3.4060 C   0  0  0  0  0  0  0  0  0  0  0  0
    2.8628    0.7936    8.8492 C   0  0  0  0  0  0  0  0  0  0  0  0
    0.1745   -0.5566    4.8222 C   0  0  0  0  0  0  0  0  0  0  0  0
    1.0521    0.2467    7.3311 C   0  0  0  0  0  0  0  0  0  0  0  0
    3.3147    0.2219    6.5226 C   0  0  0  0  0  0  0  0  0  0  0  0
    1.5038    0.6210    8.6013 C   0  0  0  0  0  0  0  0  0  0  0  0
    3.7684    0.5964    7.8042 C   0  0  0  0  0  0  0  0  0  0  0  0
    2.9325    0.8375   -1.0980 C   0  0  0  0  0  0  0  0  0  0  0  0
    3.2178   -0.7358    0.8211 C   0  0  0  0  0  0  0  0  0  0  0  0
   -0.9258   -1.5560    0.7630 C   0  0  0  0  0  0  0  0  0  0  0  0
    3.3976    1.1510   10.0609 O   0  0  0  0  0  0  0  0  0  0  0  0
   -1.6576   -2.0709    1.8355 C   0  0  0  0  0  0  0  0  0  0  0  0
   -1.2721   -1.7865    3.1489 C   0  0  0  0  0  0  0  0  0  0  0  0
    2.4599    1.3290   11.1268 C   0  0  0  0  0  0  0  0  0  0  0  0
    3.8380    0.0031    2.0143 C   0  0  0  0  0  0  0  0  0  0  0  0
    4.2286    1.5542   -0.7320 C   0  0  0  0  0  0  0  0  0  0  0  0
    3.1990    1.6964   12.3989 C   0  0  0  0  0  0  0  0  0  0  0  0
    4.1972    2.1830    0.6587 C   0  0  0  0  0  0  0  0  0  0  0  0
    4.7131    1.2200    1.7253 C   0  0  0  0  0  0  0  0  0  0  0  0
    1.1888    0.4254    2.4987 H   0  0  0  0  0  0  0  0  0  0  0  0
   -0.3766    0.3645    5.0445 H   0  0  0  0  0  0  0  0  0  0  0  0
   -0.1405   -1.3692    5.4885 H   0  0  0  0  0  0  0  0  0  0  0  0
   -0.0167    0.1299    7.2120 H   0  0  0  0  0  0  0  0  0  0  0  0
    4.0359    0.0739    5.7225 H   0  0  0  0  0  0  0  0  0  0  0  0
    0.7523    0.7627    9.3645 H   0  0  0  0  0  0  0  0  0  0  0  0
    4.8337    0.7330    7.9766 H   0  0  0  0  0  0  0  0  0  0  0  0
    2.2131    1.5818   -1.4606 H   0  0  0  0  0  0  0  0  0  0  0  0
    3.1152    0.1449   -1.9293 H   0  0  0  0  0  0  0  0  0  0  0  0
    4.0106   -1.1343    0.1760 H   0  0  0  0  0  0  0  0  0  0  0  0
    2.6735   -1.6127    1.1880 H   0  0  0  0  0  0  0  0  0  0  0  0
   -1.2320   -1.7746   -0.2578 H   0  0  0  0  0  0  0  0  0  0  0  0
   -2.5359   -2.6844    1.6485 H   0  0  0  0  0  0  0  0  0  0  0  0
   -1.8526   -2.2006    3.9713 H   0  0  0  0  0  0  0  0  0  0  0  0
    1.7630    2.1398   10.8822 H   0  0  0  0  0  0  0  0  0  0  0  0
    1.9074    0.3980   11.3027 H   0  0  0  0  0  0  0  0  0  0  0  0
    4.4366   -0.7179    2.5856 H   0  0  0  0  0  0  0  0  0  0  0  0
    3.0718    0.3333    2.7123 H   0  0  0  0  0  0  0  0  0  0  0  0
    4.4078    2.3348   -1.4811 H   0  0  0  0  0  0  0  0  0  0  0  0
    5.0753    0.8614   -0.8124 H   0  0  0  0  0  0  0  0  0  0  0  0
    3.9093    0.9111   12.6749 H   0  0  0  0  0  0  0  0  0  0  0  0
    3.7695    2.6200   12.2627 H   0  0  0  0  0  0  0  0  0  0  0  0
    2.4924    1.8372   13.2230 H   0  0  0  0  0  0  0  0  0  0  0  0
    3.1948    2.5502    0.9114 H   0  0  0  0  0  0  0  0  0  0  0  0
    4.8571    3.0589    0.6565 H   0  0  0  0  0  0  0  0  0  0  0  0
    4.8275    1.7784    2.6642 H   0  0  0  0  0  0  0  0  0  0  0  0
    5.7195    0.8807    1.4544 H   0  0  0  0  0  0  0  0  0  0  0  0
  2  1  1  0  0  0  0
  3  1  1  0  0  0  0
  4  1  2  0  0  0  0
  5  3  2  0  0  0  0
  5 27  1  0  0  0  0
  6 10  1  0  0  0  0
  7  6  1  0  0  0  0
  8  5  1  0  0  0  0
  8 20  2  0  0  0  0
  9 14  2  0  0  0  0
 10  8  1  0  0  0  0
 10 28  1  0  0  0  0
 10 29  1  0  0  0  0
 11  7  1  0  0  0  0
 11 30  1  0  0  0  0
 12  7  2  0  0  0  0
 12 31  1  0  0  0  0
 13 11  2  0  0  0  0
 13  9  1  0  0  0  0
 13 32  1  0  0  0  0
 14 12  1  0  0  0  0
 14 33  1  0  0  0  0
 15  2  1  0  0  0  0
 15 34  1  0  0  0  0
 15 35  1  0  0  0  0
 16  2  1  0  0  0  0
 16 36  1  0  0  0  0
 16 37  1  0  0  0  0
 17  3  1  0  0  0  0
 17 38  1  0  0  0  0
 18  9  1  0  0  0  0
 19 17  2  0  0  0  0
 19 39  1  0  0  0  0
 20 19  1  0  0  0  0
 20 40  1  0  0  0  0
 21 18  1  0  0  0  0
 21 41  1  0  0  0  0
 21 42  1  0  0  0  0
 22 16  1  0  0  0  0
 22 43  1  0  0  0  0
 22 44  1  0  0  0  0
 23 15  1  0  0  0  0
 23 45  1  0  0  0  0
 23 46  1  0  0  0  0
 24 21  1  0  0  0  0
 24 47  1  0  0  0  0
 24 48  1  0  0  0  0
 24 49  1  0  0  0  0
 25 23  1  0  0  0  0
 25 26  1  0  0  0  0
 25 50  1  0  0  0  0
 25 51  1  0  0  0  0
 26 22  1  0  0  0  0
 26 52  1  0  0  0  0
 26 53  1  0  0  0  0
M  END
>  <Mol_ID>
8705

>  <Formula>
C22H27NO3

>  <MolWeight>
353.45468

>  <Cat>
P2404

>  <Name>
WAY-325463

>  <Synonyms>
N/A

>  <Target>
11¦Â-HSD1

>  <Form>
free base

>  <CAS>
438474-02-3

>  <URL>
N/A

$$$$
