WAY-662041
 OpenBabel08302521443D

 45 47  0  0  0  0  0  0  0  0999 V2000
    0.9931   -0.1324   -0.3945 S   0  0  0  0  0  0  0  0  0  0  0  0
   -0.6272   -0.2240   -1.1080 C   0  0  0  0  0  0  0  0  0  0  0  0
    0.6143    0.2730    1.2197 N   0  0  0  0  0  0  0  0  0  0  0  0
   -0.9817    0.6131   -2.1688 C   0  0  0  0  0  0  0  0  0  0  0  0
    1.6912    0.9688   -1.0137 O   0  0  0  0  0  0  0  0  0  0  0  0
    1.5325   -1.4773   -0.4239 O   0  0  0  0  0  0  0  0  0  0  0  0
    2.6729    1.8370    2.6859 N   0  0  0  0  0  0  0  0  0  0  0  0
   -1.5297   -1.1631   -0.5975 C   0  0  0  0  0  0  0  0  0  0  0  0
    0.4169    1.7270    1.4951 C   0  0  0  0  0  0  0  0  0  0  0  0
    1.4625   -0.3586    2.2690 C   0  0  0  0  0  0  0  0  0  0  0  0
    2.8016    0.3847    2.4136 C   0  0  0  0  0  0  0  0  0  0  0  0
    1.7794    2.4442    1.6666 C   0  0  0  0  0  0  0  0  0  0  0  0
   -2.8050   -1.2535   -1.1466 C   0  0  0  0  0  0  0  0  0  0  0  0
   -2.2597    0.5117   -2.7156 C   0  0  0  0  0  0  0  0  0  0  0  0
    2.1904    2.1470    4.0434 C   0  0  0  0  0  0  0  0  0  0  0  0
   -3.1692   -0.4167   -2.2034 C   0  0  0  0  0  0  0  0  0  0  0  0
    3.1498    1.6861    5.1491 C   0  0  0  0  0  0  0  0  0  0  0  0
    2.6461    2.0630    6.5186 C   0  0  0  0  0  0  0  0  0  0  0  0
    1.8009    1.1979    7.2279 C   0  0  0  0  0  0  0  0  0  0  0  0
    3.0170    3.2836    7.0939 C   0  0  0  0  0  0  0  0  0  0  0  0
    2.5767    3.6195    8.3743 C   0  0  0  0  0  0  0  0  0  0  0  0
    1.3629    1.5358    8.5079 C   0  0  0  0  0  0  0  0  0  0  0  0
    1.7563    2.7428    9.0824 C   0  0  0  0  0  0  0  0  0  0  0  0
   -0.2742    1.3318   -2.5737 H   0  0  0  0  0  0  0  0  0  0  0  0
   -1.2378   -1.8189    0.2197 H   0  0  0  0  0  0  0  0  0  0  0  0
   -0.1783    2.1932    0.7038 H   0  0  0  0  0  0  0  0  0  0  0  0
   -0.1789    1.8207    2.4126 H   0  0  0  0  0  0  0  0  0  0  0  0
    0.9073   -0.3412    3.2146 H   0  0  0  0  0  0  0  0  0  0  0  0
    1.6274   -1.4186    2.0508 H   0  0  0  0  0  0  0  0  0  0  0  0
    3.3777    0.2647    1.4875 H   0  0  0  0  0  0  0  0  0  0  0  0
    3.4065   -0.1092    3.1798 H   0  0  0  0  0  0  0  0  0  0  0  0
    2.3271    2.4432    0.7195 H   0  0  0  0  0  0  0  0  0  0  0  0
    1.6110    3.5049    1.8881 H   0  0  0  0  0  0  0  0  0  0  0  0
   -3.5141   -1.9790   -0.7565 H   0  0  0  0  0  0  0  0  0  0  0  0
   -2.5495    1.1544   -3.5434 H   0  0  0  0  0  0  0  0  0  0  0  0
    2.0860    3.2379    4.1268 H   0  0  0  0  0  0  0  0  0  0  0  0
    1.1924    1.7309    4.2227 H   0  0  0  0  0  0  0  0  0  0  0  0
   -4.1649   -0.4910   -2.6333 H   0  0  0  0  0  0  0  0  0  0  0  0
    3.2839    0.5993    5.1333 H   0  0  0  0  0  0  0  0  0  0  0  0
    4.1457    2.1187    4.9902 H   0  0  0  0  0  0  0  0  0  0  0  0
    1.4906    0.2508    6.7933 H   0  0  0  0  0  0  0  0  0  0  0  0
    3.6601    3.9729    6.5515 H   0  0  0  0  0  0  0  0  0  0  0  0
    2.8814    4.5616    8.8200 H   0  0  0  0  0  0  0  0  0  0  0  0
    0.7220    0.8537    9.0606 H   0  0  0  0  0  0  0  0  0  0  0  0
    1.4253    3.0009   10.0847 H   0  0  0  0  0  0  0  0  0  0  0  0
  2  1  1  0  0  0  0
  3  1  1  0  0  0  0
  4  2  2  0  0  0  0
  4 24  1  0  0  0  0
  5  1  2  0  0  0  0
  6  1  2  0  0  0  0
  7 11  1  0  0  0  0
  7 12  1  0  0  0  0
  8  2  1  0  0  0  0
  8 25  1  0  0  0  0
  9  3  1  0  0  0  0
  9 26  1  0  0  0  0
  9 27  1  0  0  0  0
 10  3  1  0  0  0  0
 10 28  1  0  0  0  0
 10 29  1  0  0  0  0
 11 10  1  0  0  0  0
 11 30  1  0  0  0  0
 11 31  1  0  0  0  0
 12  9  1  0  0  0  0
 12 32  1  0  0  0  0
 12 33  1  0  0  0  0
 13  8  2  0  0  0  0
 13 34  1  0  0  0  0
 14  4  1  0  0  0  0
 14 35  1  0  0  0  0
 15  7  1  0  0  0  0
 15 36  1  0  0  0  0
 15 37  1  0  0  0  0
 16 13  1  0  0  0  0
 16 14  2  0  0  0  0
 16 38  1  0  0  0  0
 17 15  1  0  0  0  0
 17 39  1  0  0  0  0
 17 40  1  0  0  0  0
 18 17  1  0  0  0  0
 19 18  2  0  0  0  0
 19 41  1  0  0  0  0
 20 18  1  0  0  0  0
 20 42  1  0  0  0  0
 21 20  2  0  0  0  0
 21 43  1  0  0  0  0
 22 19  1  0  0  0  0
 22 44  1  0  0  0  0
 23 21  1  0  0  0  0
 23 22  2  0  0  0  0
 23 45  1  0  0  0  0
M  END
>  <Mol_ID>
9136

>  <Formula>
C18H20Cl2N2O2S

>  <MolWeight>
399.3346

>  <Cat>
P3217

>  <Name>
WAY-662041

>  <Synonyms>
N/A

>  <Target>
serotonin 5-HT2 receptors

>  <Form>
free base

>  <CAS>
901023-89-0

>  <URL>
N/A

$$$$
