WAY-331967
 OpenBabel08302521453D

 51 53  0  0  0  0  0  0  0  0999 V2000
    0.0562   -0.6581    0.9106 C   0  0  0  0  0  0  0  0  0  0  0  0
    0.6942    0.3786    0.3879 N   0  0  0  0  0  0  0  0  0  0  0  0
   -0.2407    1.4083    0.3758 C   0  0  0  0  0  0  0  0  0  0  0  0
   -1.2472   -0.3857    1.2328 O   0  0  0  0  0  0  0  0  0  0  0  0
   -1.4184    0.9346    0.9206 C   0  0  0  0  0  0  0  0  0  0  0  0
    0.5322   -1.9962    1.2895 C   0  0  0  0  0  0  0  0  0  0  0  0
   -0.5368    5.9090   -2.8423 C   0  0  0  0  0  0  0  0  0  0  0  0
   -0.0366    7.2111   -2.9147 N   0  0  0  0  0  0  0  0  0  0  0  0
    1.8108   -2.2256    1.8447 C   0  0  0  0  0  0  0  0  0  0  0  0
   -1.3035    5.4659   -3.6914 O   0  0  0  0  0  0  0  0  0  0  0  0
   -0.7810    3.4448   -1.4710 S   0  0  0  0  0  0  0  0  0  0  0  0
    0.1422    2.8041   -0.0294 C   0  0  0  0  0  0  0  0  0  0  0  0
   -0.1475    8.0137   -4.1442 C   0  0  0  0  0  0  0  0  0  0  0  0
   -0.0037    5.1039   -1.6402 C   0  0  0  0  0  0  0  0  0  0  0  0
   -2.7194    1.5199    1.2848 C   0  0  0  0  0  0  0  0  0  0  0  0
   -0.3267   -3.1041    1.1280 C   0  0  0  0  0  0  0  0  0  0  0  0
    2.8018   -1.1303    2.1314 C   0  0  0  0  0  0  0  0  0  0  0  0
    2.2061   -3.5443    2.1658 C   0  0  0  0  0  0  0  0  0  0  0  0
    1.0570    7.7156   -5.0524 C   0  0  0  0  0  0  0  0  0  0  0  0
   -0.2339    9.5178   -3.8327 C   0  0  0  0  0  0  0  0  0  0  0  0
    0.0718   -4.3977    1.4719 C   0  0  0  0  0  0  0  0  0  0  0  0
    1.3449   -4.6233    1.9845 C   0  0  0  0  0  0  0  0  0  0  0  0
    1.0972    8.5932   -6.3011 C   0  0  0  0  0  0  0  0  0  0  0  0
   -0.1960   10.3800   -5.0989 C   0  0  0  0  0  0  0  0  0  0  0  0
    1.0303   10.0753   -5.9529 C   0  0  0  0  0  0  0  0  0  0  0  0
    0.6753    7.4883   -2.2522 H   0  0  0  0  0  0  0  0  0  0  0  0
   -0.0381    3.4707    0.8197 H   0  0  0  0  0  0  0  0  0  0  0  0
    1.2123    2.8299   -0.2590 H   0  0  0  0  0  0  0  0  0  0  0  0
   -1.0641    7.7181   -4.6704 H   0  0  0  0  0  0  0  0  0  0  0  0
   -0.1817    5.6763   -0.7247 H   0  0  0  0  0  0  0  0  0  0  0  0
    1.0735    4.9715   -1.7861 H   0  0  0  0  0  0  0  0  0  0  0  0
   -3.5276    1.0522    0.7159 H   0  0  0  0  0  0  0  0  0  0  0  0
   -2.9142    1.3604    2.3509 H   0  0  0  0  0  0  0  0  0  0  0  0
   -2.7390    2.5968    1.0991 H   0  0  0  0  0  0  0  0  0  0  0  0
   -1.3273   -2.9634    0.7235 H   0  0  0  0  0  0  0  0  0  0  0  0
    3.2344   -1.2773    3.1279 H   0  0  0  0  0  0  0  0  0  0  0  0
    3.6061   -1.1481    1.3901 H   0  0  0  0  0  0  0  0  0  0  0  0
    2.3531   -0.1357    2.1448 H   0  0  0  0  0  0  0  0  0  0  0  0
    3.1983   -3.7256    2.5767 H   0  0  0  0  0  0  0  0  0  0  0  0
    1.9851    7.8665   -4.4852 H   0  0  0  0  0  0  0  0  0  0  0  0
    1.0466    6.6608   -5.3507 H   0  0  0  0  0  0  0  0  0  0  0  0
   -1.1566    9.7326   -3.2802 H   0  0  0  0  0  0  0  0  0  0  0  0
    0.5960    9.8133   -3.1782 H   0  0  0  0  0  0  0  0  0  0  0  0
   -0.6104   -5.2367    1.3417 H   0  0  0  0  0  0  0  0  0  0  0  0
    1.6657   -5.6274    2.2478 H   0  0  0  0  0  0  0  0  0  0  0  0
    2.0177    8.3905   -6.8611 H   0  0  0  0  0  0  0  0  0  0  0  0
    0.2599    8.3344   -6.9604 H   0  0  0  0  0  0  0  0  0  0  0  0
   -0.1944   11.4420   -4.8266 H   0  0  0  0  0  0  0  0  0  0  0  0
   -1.1025   10.2067   -5.6921 H   0  0  0  0  0  0  0  0  0  0  0  0
    1.9384   10.3694   -5.4120 H   0  0  0  0  0  0  0  0  0  0  0  0
    1.0020   10.6706   -6.8729 H   0  0  0  0  0  0  0  0  0  0  0  0
  2  1  2  0  0  0  0
  3  2  1  0  0  0  0
  4  1  1  0  0  0  0
  5  4  1  0  0  0  0
  5  3  2  0  0  0  0
  6  1  1  0  0  0  0
  7 14  1  0  0  0  0
  8  7  1  0  0  0  0
  8 26  1  0  0  0  0
  9  6  2  0  0  0  0
 10  7  2  0  0  0  0
 11 12  1  0  0  0  0
 12  3  1  0  0  0  0
 12 27  1  0  0  0  0
 12 28  1  0  0  0  0
 13  8  1  0  0  0  0
 13 29  1  0  0  0  0
 14 11  1  0  0  0  0
 14 30  1  0  0  0  0
 14 31  1  0  0  0  0
 15  5  1  0  0  0  0
 15 32  1  0  0  0  0
 15 33  1  0  0  0  0
 15 34  1  0  0  0  0
 16  6  1  0  0  0  0
 16 35  1  0  0  0  0
 17  9  1  0  0  0  0
 17 36  1  0  0  0  0
 17 37  1  0  0  0  0
 17 38  1  0  0  0  0
 18  9  1  0  0  0  0
 18 39  1  0  0  0  0
 19 13  1  0  0  0  0
 19 40  1  0  0  0  0
 19 41  1  0  0  0  0
 20 13  1  0  0  0  0
 20 42  1  0  0  0  0
 20 43  1  0  0  0  0
 21 16  2  0  0  0  0
 21 44  1  0  0  0  0
 22 21  1  0  0  0  0
 22 18  2  0  0  0  0
 22 45  1  0  0  0  0
 23 19  1  0  0  0  0
 23 46  1  0  0  0  0
 23 47  1  0  0  0  0
 24 20  1  0  0  0  0
 24 48  1  0  0  0  0
 24 49  1  0  0  0  0
 25 24  1  0  0  0  0
 25 23  1  0  0  0  0
 25 50  1  0  0  0  0
 25 51  1  0  0  0  0
M  END
>  <Mol_ID>
9283

>  <Formula>
C20H26N2O2S

>  <MolWeight>
358.49764

>  <Cat>
P2629

>  <Name>
WAY-331967

>  <Synonyms>
N/A

>  <Target>
beta-catenin

>  <Form>
free base

>  <CAS>
902585-05-1

>  <URL>
N/A

$$$$
