WAY-620700
 OpenBabel08302521443D

 32 34  0  0  0  0  0  0  0  0999 V2000
    1.6007   -1.0351    0.1877 N   0  0  0  0  0  0  0  0  0  0  0  0
    0.0786    0.5767    0.2596 N   0  0  0  0  0  0  0  0  0  0  0  0
    0.2724   -0.7134    0.1136 C   0  0  0  0  0  0  0  0  0  0  0  0
    2.3132    0.1267    0.3633 C   0  0  0  0  0  0  0  0  0  0  0  0
    1.6152   -3.2816    1.1672 C   0  0  0  0  0  0  0  0  0  0  0  0
    2.1370   -2.3738    0.0719 C   0  0  0  0  0  0  0  0  0  0  0  0
    1.3308    1.1154    0.4151 C   0  0  0  0  0  0  0  0  0  0  0  0
    0.8471   -5.4997    4.9084 C   0  0  0  0  0  0  0  0  0  0  0  0
    1.0209   -4.8253    3.7001 C   0  0  0  0  0  0  0  0  0  0  0  0
    2.3694   -3.2543    2.3313 N   0  0  0  0  0  0  0  0  0  0  0  0
    2.1222   -3.9838    3.5187 C   0  0  0  0  0  0  0  0  0  0  0  0
    1.7616   -5.3500    5.9398 C   0  0  0  0  0  0  0  0  0  0  0  0
    0.6069   -3.9571    0.9736 O   0  0  0  0  0  0  0  0  0  0  0  0
    2.8655   -4.5228    5.7774 C   0  0  0  0  0  0  0  0  0  0  0  0
   -0.2192   -6.2960    5.0660 F   0  0  0  0  0  0  0  0  0  0  0  0
    3.0439   -3.8388    4.5692 C   0  0  0  0  0  0  0  0  0  0  0  0
    1.5889   -5.9997    7.0985 F   0  0  0  0  0  0  0  0  0  0  0  0
    3.6788    0.4162    0.4756 C   0  0  0  0  0  0  0  0  0  0  0  0
    1.7059    2.4537    0.6024 C   0  0  0  0  0  0  0  0  0  0  0  0
    4.0328    1.7586    0.6584 C   0  0  0  0  0  0  0  0  0  0  0  0
    3.0653    2.7622    0.7252 C   0  0  0  0  0  0  0  0  0  0  0  0
   -0.5062   -1.4523   -0.0382 H   0  0  0  0  0  0  0  0  0  0  0  0
    1.8356   -2.7702   -0.9043 H   0  0  0  0  0  0  0  0  0  0  0  0
    3.2301   -2.3399    0.0916 H   0  0  0  0  0  0  0  0  0  0  0  0
    0.2676   -4.9801    2.9370 H   0  0  0  0  0  0  0  0  0  0  0  0
    3.1684   -2.6308    2.3548 H   0  0  0  0  0  0  0  0  0  0  0  0
    3.5764   -4.4150    6.5910 H   0  0  0  0  0  0  0  0  0  0  0  0
    3.9155   -3.1966    4.4654 H   0  0  0  0  0  0  0  0  0  0  0  0
    4.4427   -0.3501    0.4144 H   0  0  0  0  0  0  0  0  0  0  0  0
    0.9473    3.2276    0.6457 H   0  0  0  0  0  0  0  0  0  0  0  0
    5.0840    2.0267    0.7462 H   0  0  0  0  0  0  0  0  0  0  0  0
    3.3669    3.7972    0.8682 H   0  0  0  0  0  0  0  0  0  0  0  0
  2  3  2  0  0  0  0
  2  7  1  0  0  0  0
  3  1  1  0  0  0  0
  3 22  1  0  0  0  0
  4  1  1  0  0  0  0
  5  6  1  0  0  0  0
  6  1  1  0  0  0  0
  6 23  1  0  0  0  0
  6 24  1  0  0  0  0
  7  4  2  0  0  0  0
  8  9  2  0  0  0  0
  8 12  1  0  0  0  0
  9 11  1  0  0  0  0
  9 25  1  0  0  0  0
 10  5  1  0  0  0  0
 10 26  1  0  0  0  0
 11 10  1  0  0  0  0
 12 14  2  0  0  0  0
 13  5  2  0  0  0  0
 14 16  1  0  0  0  0
 14 27  1  0  0  0  0
 15  8  1  0  0  0  0
 16 11  2  0  0  0  0
 16 28  1  0  0  0  0
 17 12  1  0  0  0  0
 18  4  1  0  0  0  0
 18 29  1  0  0  0  0
 19  7  1  0  0  0  0
 19 21  2  0  0  0  0
 19 30  1  0  0  0  0
 20 18  2  0  0  0  0
 20 31  1  0  0  0  0
 21 20  1  0  0  0  0
 21 32  1  0  0  0  0
M  END
>  <Mol_ID>
9019

>  <Formula>
C15H11F2N3O

>  <MolWeight>
287.2641464

>  <Cat>
P2955

>  <Name>
WAY-620700

>  <Synonyms>
N/A

>  <Target>
vanilloid receptor 1

>  <Form>
free base

>  <CAS>
733791-01-0

>  <URL>
N/A

$$$$
