WAY-327270
 OpenBabel08302521443D

 55 58  0  0  0  0  0  0  0  0999 V2000
    5.3525   -0.9857    1.0124 C   0  0  0  0  0  0  0  0  0  0  0  0
    4.9488    6.1800   -2.0837 C   0  0  0  0  0  0  0  0  0  0  0  0
    4.6525    0.0302    0.1740 C   0  0  0  0  0  0  0  0  0  0  0  0
    3.6125    5.8187   -1.9346 N   0  0  0  0  0  0  0  0  0  0  0  0
    5.4916    7.0903   -3.0200 N   0  0  0  0  0  0  0  0  0  0  0  0
    3.2957    4.7237   -1.0451 C   0  0  0  0  0  0  0  0  0  0  0  0
    4.3755    4.2973   -0.3104 C   0  0  0  0  0  0  0  0  0  0  0  0
    3.6906    0.8554    0.7811 N   0  0  0  0  0  0  0  0  0  0  0  0
    5.2526    5.2836   -0.0239 C   0  0  0  0  0  0  0  0  0  0  0  0
    5.8424    5.6285   -1.1846 C   0  0  0  0  0  0  0  0  0  0  0  0
    6.6779    9.7354   -2.2740 N   0  0  0  0  0  0  0  0  0  0  0  0
    5.9026   -2.1775    0.4954 C   0  0  0  0  0  0  0  0  0  0  0  0
    5.7751   -0.5407    2.2809 C   0  0  0  0  0  0  0  0  0  0  0  0
    3.4622    2.1655    0.2807 C   0  0  0  0  0  0  0  0  0  0  0  0
    4.5583    2.9635    0.0868 C   0  0  0  0  0  0  0  0  0  0  0  0
    5.0157    0.1711   -0.9905 O   0  0  0  0  0  0  0  0  0  0  0  0
    4.7331    8.3257   -3.2904 C   0  0  0  0  0  0  0  0  0  0  0  0
    6.9609    7.3629   -2.9460 C   0  0  0  0  0  0  0  0  0  0  0  0
    2.1436    3.9973   -0.6242 C   0  0  0  0  0  0  0  0  0  0  0  0
    6.8927   -2.8560    1.2280 C   0  0  0  0  0  0  0  0  0  0  0  0
    5.2120    9.5545   -2.4352 C   0  0  0  0  0  0  0  0  0  0  0  0
    7.2977    8.4539   -1.9006 C   0  0  0  0  0  0  0  0  0  0  0  0
    6.7559   -1.2330    2.9979 C   0  0  0  0  0  0  0  0  0  0  0  0
    2.2237    2.7685    0.1273 C   0  0  0  0  0  0  0  0  0  0  0  0
    7.3265   -2.3828    2.4637 C   0  0  0  0  0  0  0  0  0  0  0  0
    5.6883   -2.7513   -0.7294 O   0  0  0  0  0  0  0  0  0  0  0  0
    6.9876   10.7703   -1.2831 C   0  0  0  0  0  0  0  0  0  0  0  0
    4.5717    6.5214    0.7118 C   0  0  0  0  0  0  0  0  0  0  0  0
    4.3415   -2.8330   -1.1753 C   0  0  0  0  0  0  0  0  0  0  0  0
    3.0835    0.4786    1.4972 H   0  0  0  0  0  0  0  0  0  0  0  0
    6.6143    4.9840   -1.6175 H   0  0  0  0  0  0  0  0  0  0  0  0
    5.4301    0.4120    2.6777 H   0  0  0  0  0  0  0  0  0  0  0  0
    5.5632    2.6194    0.3087 H   0  0  0  0  0  0  0  0  0  0  0  0
    4.8979    8.5741   -4.3468 H   0  0  0  0  0  0  0  0  0  0  0  0
    3.6559    8.1877   -3.1612 H   0  0  0  0  0  0  0  0  0  0  0  0
    7.2991    7.7008   -3.9330 H   0  0  0  0  0  0  0  0  0  0  0  0
    7.5573    6.4645   -2.7479 H   0  0  0  0  0  0  0  0  0  0  0  0
    1.1601    4.4060   -0.8445 H   0  0  0  0  0  0  0  0  0  0  0  0
    7.3590   -3.7450    0.8038 H   0  0  0  0  0  0  0  0  0  0  0  0
    4.7394    9.4881   -1.4482 H   0  0  0  0  0  0  0  0  0  0  0  0
    4.8232   10.4600   -2.9187 H   0  0  0  0  0  0  0  0  0  0  0  0
    8.3883    8.5726   -1.8652 H   0  0  0  0  0  0  0  0  0  0  0  0
    6.9779    8.1527   -0.8943 H   0  0  0  0  0  0  0  0  0  0  0  0
    7.1198   -0.8376    3.9424 H   0  0  0  0  0  0  0  0  0  0  0  0
    1.3198    2.2994    0.5037 H   0  0  0  0  0  0  0  0  0  0  0  0
    8.1313   -2.8923    2.9879 H   0  0  0  0  0  0  0  0  0  0  0  0
    6.6648   11.7540   -1.6409 H   0  0  0  0  0  0  0  0  0  0  0  0
    6.5107   10.5811   -0.3141 H   0  0  0  0  0  0  0  0  0  0  0  0
    8.0693   10.8434   -1.1113 H   0  0  0  0  0  0  0  0  0  0  0  0
    3.5862    6.2506    1.1190 H   0  0  0  0  0  0  0  0  0  0  0  0
    5.2059    6.8762    1.5173 H   0  0  0  0  0  0  0  0  0  0  0  0
    4.3822    7.3667    0.0298 H   0  0  0  0  0  0  0  0  0  0  0  0
    3.6130   -2.8151   -0.3591 H   0  0  0  0  0  0  0  0  0  0  0  0
    4.1426   -2.0404   -1.8995 H   0  0  0  0  0  0  0  0  0  0  0  0
    4.2246   -3.7884   -1.7017 H   0  0  0  0  0  0  0  0  0  0  0  0
  2  4  2  0  0  0  0
  3  1  1  0  0  0  0
  4  6  1  0  0  0  0
  5  2  1  0  0  0  0
  6 19  2  0  0  0  0
  6  7  1  0  0  0  0
  7 15  2  0  0  0  0
  8  3  1  0  0  0  0
  8 30  1  0  0  0  0
  9  7  1  0  0  0  0
 10  9  2  0  0  0  0
 10  2  1  0  0  0  0
 10 31  1  0  0  0  0
 11 22  1  0  0  0  0
 12  1  2  0  0  0  0
 13  1  1  0  0  0  0
 13 32  1  0  0  0  0
 14  8  1  0  0  0  0
 15 14  1  0  0  0  0
 15 33  1  0  0  0  0
 16  3  2  0  0  0  0
 17  5  1  0  0  0  0
 17 34  1  0  0  0  0
 17 35  1  0  0  0  0
 18  5  1  0  0  0  0
 18 36  1  0  0  0  0
 18 37  1  0  0  0  0
 19 24  1  0  0  0  0
 19 38  1  0  0  0  0
 20 12  1  0  0  0  0
 20 39  1  0  0  0  0
 21 17  1  0  0  0  0
 21 11  1  0  0  0  0
 21 40  1  0  0  0  0
 21 41  1  0  0  0  0
 22 18  1  0  0  0  0
 22 42  1  0  0  0  0
 22 43  1  0  0  0  0
 23 13  2  0  0  0  0
 23 44  1  0  0  0  0
 24 14  2  0  0  0  0
 24 45  1  0  0  0  0
 25 23  1  0  0  0  0
 25 20  2  0  0  0  0
 25 46  1  0  0  0  0
 26 12  1  0  0  0  0
 27 11  1  0  0  0  0
 27 47  1  0  0  0  0
 27 48  1  0  0  0  0
 27 49  1  0  0  0  0
 28  9  1  0  0  0  0
 28 50  1  0  0  0  0
 28 51  1  0  0  0  0
 28 52  1  0  0  0  0
 29 26  1  0  0  0  0
 29 53  1  0  0  0  0
 29 54  1  0  0  0  0
 29 55  1  0  0  0  0
M  END
>  <Mol_ID>
8962

>  <Formula>
C23H25ClN4O2

>  <MolWeight>
424.9232

>  <Cat>
P2522

>  <Name>
WAY-327270

>  <Synonyms>
N/A

>  <Target>
Anti-infection

>  <Form>
free base

>  <CAS>
687563-83-3

>  <URL>
N/A

$$$$
