WAY-332046
 OpenBabel08302521453D

 58 61  0  0  0  0  0  0  0  0999 V2000
    0.3948    4.3080    1.6232 N   0  0  0  0  0  0  0  0  0  0  0  0
   -0.1817    3.1828    1.0655 C   0  0  0  0  0  0  0  0  0  0  0  0
   -0.2587    4.4891    2.7541 C   0  0  0  0  0  0  0  0  0  0  0  0
   -1.2363    3.5542    2.9794 O   0  0  0  0  0  0  0  0  0  0  0  0
   -1.1852    2.7291    1.8944 C   0  0  0  0  0  0  0  0  0  0  0  0
    1.3240    5.3613   -1.4878 C   0  0  0  0  0  0  0  0  0  0  0  0
    1.7709    6.6456   -1.2333 N   0  0  0  0  0  0  0  0  0  0  0  0
   -0.1705    5.1243   -1.4044 C   0  0  0  0  0  0  0  0  0  0  0  0
   -0.6847    3.3960   -1.6067 S   0  0  3  0  0  0  0  0  0  0  0  0
    2.7966    9.2629   -1.6103 N   0  0  0  0  0  0  0  0  0  0  0  0
    0.2707    2.6580   -0.2459 C   0  0  0  0  0  0  0  0  0  0  0  0
   -0.1465    5.5618    3.7377 C   0  0  0  0  0  0  0  0  0  0  0  0
    3.3246   10.5024   -1.3242 C   0  0  0  0  0  0  0  0  0  0  0  0
    0.9375    7.8082   -0.8952 C   0  0  0  0  0  0  0  0  0  0  0  0
    3.2178    6.8912   -1.1740 C   0  0  0  0  0  0  0  0  0  0  0  0
    1.3443    9.0493   -1.7098 C   0  0  0  0  0  0  0  0  0  0  0  0
    3.6253    8.1147   -2.0117 C   0  0  0  0  0  0  0  0  0  0  0  0
    2.1286    4.4719   -1.7759 O   0  0  0  0  0  0  0  0  0  0  0  0
   -0.1671    2.8808   -2.9172 O   0  0  0  0  0  0  0  0  0  0  0  0
    0.7657    6.6098    3.5471 C   0  0  0  0  0  0  0  0  0  0  0  0
   -0.9687    5.5908    4.8730 C   0  0  0  0  0  0  0  0  0  0  0  0
    4.5165   10.9617   -1.9091 C   0  0  0  0  0  0  0  0  0  0  0  0
    2.6886   11.3567   -0.4062 C   0  0  0  0  0  0  0  0  0  0  0  0
    4.3674   13.0407   -0.7108 C   0  0  0  0  0  0  0  0  0  0  0  0
    3.2000   12.6147   -0.0987 C   0  0  0  0  0  0  0  0  0  0  0  0
    5.0348   12.2249   -1.6087 C   0  0  0  0  0  0  0  0  0  0  0  0
    0.8265    7.6734    4.4540 C   0  0  0  0  0  0  0  0  0  0  0  0
   -0.9079    6.6508    5.7795 C   0  0  0  0  0  0  0  0  0  0  0  0
   -0.0171    7.7066    5.5721 C   0  0  0  0  0  0  0  0  0  0  0  0
    4.8578   14.2524   -0.4217 F   0  0  0  0  0  0  0  0  0  0  0  0
   -2.1666    1.6323    1.8529 C   0  0  0  0  0  0  0  0  0  0  0  0
    0.0181    8.8704    6.5172 C   0  0  0  0  0  0  0  0  0  0  0  0
   -0.6630    5.6876   -2.2037 H   0  0  0  0  0  0  0  0  0  0  0  0
   -0.5641    5.4822   -0.4498 H   0  0  0  0  0  0  0  0  0  0  0  0
    1.3416    2.8133   -0.3758 H   0  0  0  0  0  0  0  0  0  0  0  0
    0.1047    1.5769   -0.2955 H   0  0  0  0  0  0  0  0  0  0  0  0
   -0.1244    7.6072   -1.0505 H   0  0  0  0  0  0  0  0  0  0  0  0
    1.0890    7.9993    0.1738 H   0  0  0  0  0  0  0  0  0  0  0  0
    3.4559    7.0666   -0.1173 H   0  0  0  0  0  0  0  0  0  0  0  0
    3.7928    6.0185   -1.4960 H   0  0  0  0  0  0  0  0  0  0  0  0
    1.0858    8.9008   -2.7663 H   0  0  0  0  0  0  0  0  0  0  0  0
    0.7534    9.9059   -1.3713 H   0  0  0  0  0  0  0  0  0  0  0  0
    3.4715    7.9089   -3.0785 H   0  0  0  0  0  0  0  0  0  0  0  0
    4.6940    8.2897   -1.8506 H   0  0  0  0  0  0  0  0  0  0  0  0
    1.4285    6.6075    2.6847 H   0  0  0  0  0  0  0  0  0  0  0  0
   -1.6804    4.7881    5.0580 H   0  0  0  0  0  0  0  0  0  0  0  0
    5.0484   10.3511   -2.6338 H   0  0  0  0  0  0  0  0  0  0  0  0
    1.7922   11.0302    0.1163 H   0  0  0  0  0  0  0  0  0  0  0  0
    2.6926   13.2544    0.6141 H   0  0  0  0  0  0  0  0  0  0  0  0
    5.9485   12.5735   -2.0791 H   0  0  0  0  0  0  0  0  0  0  0  0
    1.5319    8.4839    4.2808 H   0  0  0  0  0  0  0  0  0  0  0  0
   -1.5687    6.6439    6.6436 H   0  0  0  0  0  0  0  0  0  0  0  0
   -2.0727    1.0001    2.7408 H   0  0  0  0  0  0  0  0  0  0  0  0
   -3.1842    2.0345    1.8227 H   0  0  0  0  0  0  0  0  0  0  0  0
   -2.0243    1.0037    0.9694 H   0  0  0  0  0  0  0  0  0  0  0  0
    1.0220    8.9928    6.9346 H   0  0  0  0  0  0  0  0  0  0  0  0
   -0.2720    9.7864    5.9924 H   0  0  0  0  0  0  0  0  0  0  0  0
   -0.6774    8.7296    7.3518 H   0  0  0  0  0  0  0  0  0  0  0  0
  2  1  1  0  0  0  0
  3  1  2  0  0  0  0
  4  3  1  0  0  0  0
  5  2  2  0  0  0  0
  5  4  1  0  0  0  0
  6  8  1  0  0  0  0
  7  6  1  0  0  0  0
  8  9  1  0  0  0  0
  8 33  1  0  0  0  0
  8 34  1  0  0  0  0
  9 11  1  0  0  0  0
 10 17  1  0  0  0  0
 10 16  1  0  0  0  0
 11  2  1  0  0  0  0
 11 35  1  0  0  0  0
 11 36  1  0  0  0  0
 12  3  1  0  0  0  0
 13 10  1  0  0  0  0
 14  7  1  0  0  0  0
 14 37  1  0  0  0  0
 14 38  1  0  0  0  0
 15  7  1  0  0  0  0
 15 39  1  0  0  0  0
 15 40  1  0  0  0  0
 16 14  1  0  0  0  0
 16 41  1  0  0  0  0
 16 42  1  0  0  0  0
 17 15  1  0  0  0  0
 17 43  1  0  0  0  0
 17 44  1  0  0  0  0
 18  6  2  0  0  0  0
 19  9  2  0  0  0  0
 20 12  2  0  0  0  0
 20 45  1  0  0  0  0
 21 12  1  0  0  0  0
 21 46  1  0  0  0  0
 22 13  2  0  0  0  0
 22 47  1  0  0  0  0
 23 13  1  0  0  0  0
 23 48  1  0  0  0  0
 24 25  1  0  0  0  0
 25 23  2  0  0  0  0
 25 49  1  0  0  0  0
 26 22  1  0  0  0  0
 26 24  2  0  0  0  0
 26 50  1  0  0  0  0
 27 20  1  0  0  0  0
 27 51  1  0  0  0  0
 28 21  2  0  0  0  0
 28 52  1  0  0  0  0
 29 28  1  0  0  0  0
 29 27  2  0  0  0  0
 30 24  1  0  0  0  0
 31  5  1  0  0  0  0
 31 53  1  0  0  0  0
 31 54  1  0  0  0  0
 31 55  1  0  0  0  0
 32 29  1  0  0  0  0
 32 56  1  0  0  0  0
 32 57  1  0  0  0  0
 32 58  1  0  0  0  0
M  END
>  <Mol_ID>
9274

>  <Formula>
C24H26FN3O3S

>  <MolWeight>
455.5449432

>  <Cat>
P2694

>  <Name>
WAY-332046

>  <Synonyms>
N/A

>  <Target>
beta-catenin

>  <Form>
free base

>  <CAS>
959498-34-1

>  <URL>
N/A

$$$$
