WAY-267130
 OpenBabel08302521443D

 34 35  0  0  0  0  0  0  0  0999 V2000
    4.8854    2.5389   -3.0925 C   0  0  0  0  0  0  0  0  0  0  0  0
    4.3609   -0.0156   -2.0209 N   0  0  0  0  0  0  0  0  0  0  0  0
    3.7905    1.5763   -2.0755 S   0  0  0  0  0  0  0  0  0  0  0  0
    3.8541    2.0965   -0.7293 O   0  0  0  0  0  0  0  0  0  0  0  0
    2.5360    1.5101   -2.7921 O   0  0  0  0  0  0  0  0  0  0  0  0
    5.5456   -0.2973   -1.1804 C   0  0  0  0  0  0  0  0  0  0  0  0
    5.4604   -1.7179   -0.5973 C   0  0  0  0  0  0  0  0  0  0  0  0
    4.8145   -1.9134    0.4317 O   0  0  0  0  0  0  0  0  0  0  0  0
    6.0960   -2.6956   -1.3520 N   0  0  0  0  0  0  0  0  0  0  0  0
    5.3753    2.0431   -4.3016 C   0  0  0  0  0  0  0  0  0  0  0  0
    6.0193    2.9153   -5.1939 C   0  0  0  0  0  0  0  0  0  0  0  0
    6.1638    4.2698   -4.8721 C   0  0  0  0  0  0  0  0  0  0  0  0
    5.7165    4.7488   -3.6423 C   0  0  0  0  0  0  0  0  0  0  0  0
    5.0872    3.8837   -2.7450 C   0  0  0  0  0  0  0  0  0  0  0  0
    6.1925   -4.0804   -1.0466 C   0  0  0  0  0  0  0  0  0  0  0  0
    5.7623   -4.6473    0.1571 C   0  0  0  0  0  0  0  0  0  0  0  0
    5.8136   -6.0332    0.3597 C   0  0  0  0  0  0  0  0  0  0  0  0
    6.3168   -6.8711   -0.6309 C   0  0  0  0  0  0  0  0  0  0  0  0
    6.8026   -6.3176   -1.8116 C   0  0  0  0  0  0  0  0  0  0  0  0
    6.7466   -4.9309   -2.0155 C   0  0  0  0  0  0  0  0  0  0  0  0
    3.5463   -0.5789   -1.7421 H   0  0  0  0  0  0  0  0  0  0  0  0
    6.4499   -0.1796   -1.7828 H   0  0  0  0  0  0  0  0  0  0  0  0
    5.6094    0.3834   -0.3260 H   0  0  0  0  0  0  0  0  0  0  0  0
    6.4341   -2.4214   -2.2663 H   0  0  0  0  0  0  0  0  0  0  0  0
    5.2128    1.0093   -4.5887 H   0  0  0  0  0  0  0  0  0  0  0  0
    6.3632    2.5572   -6.1578 H   0  0  0  0  0  0  0  0  0  0  0  0
    6.6056    4.9581   -5.5903 H   0  0  0  0  0  0  0  0  0  0  0  0
    5.8157    5.8062   -3.3991 H   0  0  0  0  0  0  0  0  0  0  0  0
    4.6980    4.2806   -1.8098 H   0  0  0  0  0  0  0  0  0  0  0  0
    5.3715   -4.0400    0.9675 H   0  0  0  0  0  0  0  0  0  0  0  0
    5.4499   -6.4534    1.2947 H   0  0  0  0  0  0  0  0  0  0  0  0
    6.3335   -7.9486   -0.4788 H   0  0  0  0  0  0  0  0  0  0  0  0
    7.2178   -6.9675   -2.5789 H   0  0  0  0  0  0  0  0  0  0  0  0
    7.1325   -4.5370   -2.9512 H   0  0  0  0  0  0  0  0  0  0  0  0
  1  3  1  0  0  0  0
  1 10  2  0  0  0  0
  2  6  1  0  0  0  0
  2 21  1  0  0  0  0
  3  2  1  0  0  0  0
  3  4  2  0  0  0  0
  3  5  2  0  0  0  0
  6  7  1  0  0  0  0
  6 22  1  0  0  0  0
  6 23  1  0  0  0  0
  7  8  2  0  0  0  0
  7  9  1  0  0  0  0
  9 15  1  0  0  0  0
  9 24  1  0  0  0  0
 10 11  1  0  0  0  0
 10 25  1  0  0  0  0
 11 12  2  0  0  0  0
 11 26  1  0  0  0  0
 12 13  1  0  0  0  0
 12 27  1  0  0  0  0
 13 14  2  0  0  0  0
 13 28  1  0  0  0  0
 14  1  1  0  0  0  0
 14 29  1  0  0  0  0
 15 16  2  0  0  0  0
 16 17  1  0  0  0  0
 16 30  1  0  0  0  0
 17 18  2  0  0  0  0
 17 31  1  0  0  0  0
 18 19  1  0  0  0  0
 18 32  1  0  0  0  0
 19 20  2  0  0  0  0
 19 33  1  0  0  0  0
 20 15  1  0  0  0  0
 20 34  1  0  0  0  0
M  END
>  <Mol_ID>
9144

>  <Formula>
C14H13ClN2O3S

>  <MolWeight>
324.78262

>  <Cat>
P2079

>  <Name>
WAY-267130

>  <Synonyms>
N/A

>  <Target>
BACE-1

>  <Form>
free base

>  <CAS>
913494-77-6

>  <URL>
N/A

$$$$
