WAY-326768
 OpenBabel08302521433D

 57 60  0  0  0  0  0  0  0  0999 V2000
    0.7714    0.1422   -0.1653 C   0  0  0  0  0  0  0  0  0  0  0  0
   -0.0488    3.1600   -1.2848 C   0  0  0  0  0  0  0  0  0  0  0  0
   -1.5257    5.2384   -1.7233 C   0  0  0  0  0  0  0  0  0  0  0  0
   -0.6500    2.2593   -0.3917 N   0  0  0  0  0  0  0  0  0  0  0  0
    0.1530    1.3809    0.5492 C   0  0  3  0  0  0  0  0  0  0  0  0
   -3.0025    6.9062   -1.4811 N   0  0  0  0  0  0  0  0  0  0  0  0
   -2.7214    5.7667   -2.1845 C   0  0  0  0  0  0  0  0  0  0  0  0
   -0.8884    3.9861   -2.2634 C   0  0  0  0  0  0  0  0  0  0  0  0
    0.5260   -1.1226    0.4304 N   0  0  0  0  0  0  0  0  0  0  0  0
   -1.0142    6.1882   -0.7703 C   0  0  0  0  0  0  0  0  0  0  0  0
   -1.9773    7.1896   -0.6109 C   0  0  0  0  0  0  0  0  0  0  0  0
    1.3865    0.2607   -1.2256 O   0  0  0  0  0  0  0  0  0  0  0  0
    1.1711    3.3182   -1.3657 O   0  0  0  0  0  0  0  0  0  0  0  0
    1.1498    2.1287    1.4510 C   0  0  0  0  0  0  0  0  0  0  0  0
    1.1274   -2.3385    0.0035 C   0  0  0  0  0  0  0  0  0  0  0  0
    2.3124   -4.7439   -0.9460 C   0  0  0  0  0  0  0  0  0  0  0  0
    2.3113   -2.3333   -0.7340 C   0  0  0  0  0  0  0  0  0  0  0  0
    0.5661   -3.5878    0.3183 C   0  0  0  0  0  0  0  0  0  0  0  0
    2.8874   -3.5094   -1.2144 C   0  0  0  0  0  0  0  0  0  0  0  0
    1.1517   -4.7791   -0.1650 C   0  0  0  0  0  0  0  0  0  0  0  0
   -2.0403    1.8618   -0.5478 C   0  0  0  0  0  0  0  0  0  0  0  0
    2.8009   -5.9496   -1.3849 O   0  0  0  0  0  0  0  0  0  0  0  0
    0.1837    6.3137   -0.0336 C   0  0  0  0  0  0  0  0  0  0  0  0
   -1.8293    8.2649    0.2779 C   0  0  0  0  0  0  0  0  0  0  0  0
    0.8639    2.3594    2.8087 C   0  0  0  0  0  0  0  0  0  0  0  0
    2.3615    2.6421    0.9606 C   0  0  0  0  0  0  0  0  0  0  0  0
    4.0101   -5.8884   -2.1515 C   0  0  0  0  0  0  0  0  0  0  0  0
    0.3564    7.3925    0.8464 C   0  0  0  0  0  0  0  0  0  0  0  0
   -0.6434    8.3455    1.0106 C   0  0  0  0  0  0  0  0  0  0  0  0
    1.7154    3.1405    3.6044 C   0  0  0  0  0  0  0  0  0  0  0  0
    3.1692    3.4861    1.7267 C   0  0  0  0  0  0  0  0  0  0  0  0
    2.8451    3.7378    3.0520 C   0  0  0  0  0  0  0  0  0  0  0  0
   -0.5978    0.9719    1.2411 H   0  0  0  0  0  0  0  0  0  0  0  0
   -3.8175    7.4907   -1.6136 H   0  0  0  0  0  0  0  0  0  0  0  0
   -3.3899    5.4333   -2.9674 H   0  0  0  0  0  0  0  0  0  0  0  0
   -0.2050    4.3030   -3.0656 H   0  0  0  0  0  0  0  0  0  0  0  0
   -1.6181    3.3488   -2.7716 H   0  0  0  0  0  0  0  0  0  0  0  0
   -0.2301   -1.1998    1.0997 H   0  0  0  0  0  0  0  0  0  0  0  0
    2.8405   -1.4089   -0.9448 H   0  0  0  0  0  0  0  0  0  0  0  0
   -0.3412   -3.6710    0.9060 H   0  0  0  0  0  0  0  0  0  0  0  0
    3.7945   -3.4036   -1.7962 H   0  0  0  0  0  0  0  0  0  0  0  0
    0.6964   -5.7453    0.0653 H   0  0  0  0  0  0  0  0  0  0  0  0
   -2.0662    0.8465   -0.9577 H   0  0  0  0  0  0  0  0  0  0  0  0
   -2.5237    1.8688    0.4331 H   0  0  0  0  0  0  0  0  0  0  0  0
   -2.6121    2.5117   -1.2080 H   0  0  0  0  0  0  0  0  0  0  0  0
    0.9875    5.5907   -0.1515 H   0  0  0  0  0  0  0  0  0  0  0  0
   -2.6054    9.0146    0.3942 H   0  0  0  0  0  0  0  0  0  0  0  0
   -0.0280    1.9422    3.2690 H   0  0  0  0  0  0  0  0  0  0  0  0
    2.6762    2.4385   -0.0614 H   0  0  0  0  0  0  0  0  0  0  0  0
    3.8504   -5.3626   -3.0995 H   0  0  0  0  0  0  0  0  0  0  0  0
    4.8190   -5.4226   -1.5776 H   0  0  0  0  0  0  0  0  0  0  0  0
    4.3244   -6.9088   -2.3876 H   0  0  0  0  0  0  0  0  0  0  0  0
    1.2846    7.4790    1.4057 H   0  0  0  0  0  0  0  0  0  0  0  0
   -0.4963    9.1698    1.7057 H   0  0  0  0  0  0  0  0  0  0  0  0
    1.4845    3.3051    4.6538 H   0  0  0  0  0  0  0  0  0  0  0  0
    4.0387    3.9531    1.2708 H   0  0  0  0  0  0  0  0  0  0  0  0
    3.4750    4.3914    3.6491 H   0  0  0  0  0  0  0  0  0  0  0  0
  2  4  1  0  0  0  0
  3  8  1  0  0  0  0
  4  5  1  0  0  0  0
  5  1  1  0  0  0  0
  5 33  1  0  0  0  0
  6  7  1  0  0  0  0
  6 34  1  0  0  0  0
  7  3  2  0  0  0  0
  7 35  1  0  0  0  0
  8  2  1  0  0  0  0
  8 36  1  0  0  0  0
  8 37  1  0  0  0  0
  9  1  1  0  0  0  0
  9 38  1  0  0  0  0
 10  3  1  0  0  0  0
 11 10  2  0  0  0  0
 11  6  1  0  0  0  0
 12  1  2  0  0  0  0
 13  2  2  0  0  0  0
 14  5  1  0  0  0  0
 15  9  1  0  0  0  0
 16 20  2  0  0  0  0
 17 15  1  0  0  0  0
 17 39  1  0  0  0  0
 18 15  2  0  0  0  0
 18 40  1  0  0  0  0
 19 17  2  0  0  0  0
 19 16  1  0  0  0  0
 19 41  1  0  0  0  0
 20 18  1  0  0  0  0
 20 42  1  0  0  0  0
 21  4  1  0  0  0  0
 21 43  1  0  0  0  0
 21 44  1  0  0  0  0
 21 45  1  0  0  0  0
 22 16  1  0  0  0  0
 23 10  1  0  0  0  0
 23 46  1  0  0  0  0
 24 11  1  0  0  0  0
 24 47  1  0  0  0  0
 25 14  2  0  0  0  0
 25 48  1  0  0  0  0
 26 14  1  0  0  0  0
 26 49  1  0  0  0  0
 27 22  1  0  0  0  0
 27 50  1  0  0  0  0
 27 51  1  0  0  0  0
 27 52  1  0  0  0  0
 28 23  2  0  0  0  0
 28 53  1  0  0  0  0
 29 28  1  0  0  0  0
 29 24  2  0  0  0  0
 29 54  1  0  0  0  0
 30 25  1  0  0  0  0
 30 32  2  0  0  0  0
 30 55  1  0  0  0  0
 31 26  2  0  0  0  0
 31 56  1  0  0  0  0
 32 31  1  0  0  0  0
 32 57  1  0  0  0  0
M  END
>  <Mol_ID>
8934

>  <Formula>
C26H25N3O3

>  <MolWeight>
427.495

>  <Cat>
P2493

>  <Name>
WAY-326768

>  <Synonyms>
N/A

>  <Target>
CFTR

>  <Form>
free base

>  <CAS>
853138-73-5

>  <URL>
N/A

$$$$
