WAY-643053
 OpenBabel08302521453D

 46 49  0  0  0  0  0  0  0  0999 V2000
    2.2478   -0.1443   -0.2225 C   0  0  0  0  0  0  0  0  0  0  0  0
    1.3544   -1.2323   -0.1335 C   0  0  0  0  0  0  0  0  0  0  0  0
    1.4580    1.3705    0.0025 S   0  0  0  0  0  0  0  0  0  0  0  0
    0.0222   -0.7303    0.0200 C   0  0  0  0  0  0  0  0  0  0  0  0
    6.4473    1.3129    1.5056 C   0  0  0  0  0  0  0  0  0  0  0  0
    5.7854    0.2133    1.7563 N   0  0  0  0  0  0  0  0  0  0  0  0
   -0.0198    0.6316    0.0758 C   0  0  0  0  0  0  0  0  0  0  0  0
    6.4316    2.1949    2.5494 N   0  0  0  0  0  0  0  0  0  0  0  0
    3.6253   -0.1645   -0.4290 N   0  0  0  0  0  0  0  0  0  0  0  0
    1.7452   -2.6326   -0.2788 C   0  0  0  0  0  0  0  0  0  0  0  0
    5.0816    0.5263    2.8765 C   0  0  0  0  0  0  0  0  0  0  0  0
    5.5995    1.6545    3.5052 C   0  0  0  0  0  0  0  0  0  0  0  0
    4.3935    0.9245   -0.8659 C   0  0  0  0  0  0  0  0  0  0  0  0
    6.9441    1.7764   -0.0796 S   0  0  0  0  0  0  0  0  0  0  0  0
    2.9151   -2.9820   -0.3972 O   0  0  0  0  0  0  0  0  0  0  0  0
    3.9858    2.0423   -1.1484 O   0  0  0  0  0  0  0  0  0  0  0  0
    5.8839    0.6099   -1.0321 C   0  0  0  0  0  0  0  0  0  0  0  0
    0.6826   -3.4941   -0.2769 O   0  0  0  0  0  0  0  0  0  0  0  0
   -1.3505   -1.2991    0.1013 C   0  0  0  0  0  0  0  0  0  0  0  0
   -1.3814    1.2016    0.1593 C   0  0  0  0  0  0  0  0  0  0  0  0
   -2.2392   -0.0482   -0.1940 C   0  0  0  0  0  0  0  0  0  0  0  0
    3.8765   -0.0177    3.3168 C   0  0  0  0  0  0  0  0  0  0  0  0
    5.1169    2.1459    4.7142 C   0  0  0  0  0  0  0  0  0  0  0  0
    1.0185   -4.8696   -0.5121 C   0  0  0  0  0  0  0  0  0  0  0  0
   -0.2513   -5.7072   -0.4975 C   0  0  0  0  0  0  0  0  0  0  0  0
    3.2073    0.6707    4.3288 C   0  0  0  0  0  0  0  0  0  0  0  0
    3.8514    1.6682    5.0703 C   0  0  0  0  0  0  0  0  0  0  0  0
    6.6534    3.1750    2.4762 H   0  0  0  0  0  0  0  0  0  0  0  0
    4.0777   -1.0719   -0.3516 H   0  0  0  0  0  0  0  0  0  0  0  0
    6.1257   -0.4151   -0.7482 H   0  0  0  0  0  0  0  0  0  0  0  0
    6.1210    0.7262   -2.0928 H   0  0  0  0  0  0  0  0  0  0  0  0
   -1.5500   -1.6767    1.1100 H   0  0  0  0  0  0  0  0  0  0  0  0
   -1.5390   -2.0899   -0.6291 H   0  0  0  0  0  0  0  0  0  0  0  0
   -1.5489    2.0076   -0.5606 H   0  0  0  0  0  0  0  0  0  0  0  0
   -1.5987    1.5539    1.1716 H   0  0  0  0  0  0  0  0  0  0  0  0
   -2.4730   -0.0282   -1.2671 H   0  0  0  0  0  0  0  0  0  0  0  0
   -3.1883   -0.0683    0.3482 H   0  0  0  0  0  0  0  0  0  0  0  0
    3.4089   -0.8151    2.7529 H   0  0  0  0  0  0  0  0  0  0  0  0
    5.5925    2.9570    5.2533 H   0  0  0  0  0  0  0  0  0  0  0  0
    1.5048   -4.9681   -1.4914 H   0  0  0  0  0  0  0  0  0  0  0  0
    1.7016   -5.2299    0.2675 H   0  0  0  0  0  0  0  0  0  0  0  0
   -0.7748   -5.6055    0.4581 H   0  0  0  0  0  0  0  0  0  0  0  0
   -0.9441   -5.3771   -1.2782 H   0  0  0  0  0  0  0  0  0  0  0  0
   -0.0247   -6.7656   -0.6605 H   0  0  0  0  0  0  0  0  0  0  0  0
    2.1570    0.4565    4.5037 H   0  0  0  0  0  0  0  0  0  0  0  0
    3.3238    2.1380    5.8970 H   0  0  0  0  0  0  0  0  0  0  0  0
  2  1  2  0  0  0  0
  3  1  1  0  0  0  0
  4  2  1  0  0  0  0
  5 14  1  0  0  0  0
  6  5  2  0  0  0  0
  7  3  1  0  0  0  0
  7  4  2  0  0  0  0
  8  5  1  0  0  0  0
  8 28  1  0  0  0  0
  9  1  1  0  0  0  0
  9 29  1  0  0  0  0
 10  2  1  0  0  0  0
 11  6  1  0  0  0  0
 12  8  1  0  0  0  0
 12 11  2  0  0  0  0
 13  9  1  0  0  0  0
 14 17  1  0  0  0  0
 15 10  2  0  0  0  0
 16 13  2  0  0  0  0
 17 13  1  0  0  0  0
 17 30  1  0  0  0  0
 17 31  1  0  0  0  0
 18 10  1  0  0  0  0
 19  4  1  0  0  0  0
 19 21  1  0  0  0  0
 19 32  1  0  0  0  0
 19 33  1  0  0  0  0
 20  7  1  0  0  0  0
 20 34  1  0  0  0  0
 20 35  1  0  0  0  0
 21 20  1  0  0  0  0
 21 36  1  0  0  0  0
 21 37  1  0  0  0  0
 22 11  1  0  0  0  0
 22 38  1  0  0  0  0
 23 12  1  0  0  0  0
 23 39  1  0  0  0  0
 24 18  1  0  0  0  0
 24 40  1  0  0  0  0
 24 41  1  0  0  0  0
 25 24  1  0  0  0  0
 25 42  1  0  0  0  0
 25 43  1  0  0  0  0
 25 44  1  0  0  0  0
 26 22  2  0  0  0  0
 26 27  1  0  0  0  0
 26 45  1  0  0  0  0
 27 23  2  0  0  0  0
 27 46  1  0  0  0  0
M  END
>  <Mol_ID>
9341

>  <Formula>
C19H19N3O3S2

>  <MolWeight>
401.50246

>  <Cat>
P3126

>  <Name>
WAY-643053

>  <Synonyms>
N/A

>  <Target>
others

>  <Form>
free base

>  <CAS>
330555-46-9

>  <URL>
N/A

$$$$
