WAY-301417
 OpenBabel08302521413D

 34 36  0  0  0  0  0  0  0  0999 V2000
   -0.2596   -0.7878    0.0048 C   0  0  0  0  0  0  0  0  0  0  0  0
   -1.6290   -1.2101   -0.0250 C   0  0  0  0  0  0  0  0  0  0  0  0
   -0.2598    0.6096   -0.0115 C   0  0  0  0  0  0  0  0  0  0  0  0
    0.9879   -1.4488    0.0406 C   0  0  0  0  0  0  0  0  0  0  0  0
   -2.4071   -0.0715   -0.0576 C   0  0  0  0  0  0  0  0  0  0  0  0
   -2.1165   -2.5581   -0.0270 C   0  0  0  0  0  0  0  0  0  0  0  0
   -1.5729    1.0152   -0.0431 N   0  0  0  0  0  0  0  0  0  0  0  0
    0.9133    1.3747    0.0021 C   0  0  0  0  0  0  0  0  0  0  0  0
    2.1716   -0.6980    0.0484 C   0  0  0  0  0  0  0  0  0  0  0  0
   -3.4088   -2.9188   -0.0518 C   0  0  0  0  0  0  0  0  0  0  0  0
    2.1321    0.6932    0.0283 C   0  0  0  0  0  0  0  0  0  0  0  0
   -3.7997   -4.3598   -0.0191 C   0  0  0  0  0  0  0  0  0  0  0  0
   -5.1824   -4.6690    0.4494 C   0  0  0  0  0  0  0  0  0  0  0  0
   -3.0389   -5.2558   -0.3364 O   0  0  0  0  0  0  0  0  0  0  0  0
   -5.8707   -5.7974   -0.0171 C   0  0  0  0  0  0  0  0  0  0  0  0
   -5.7682   -3.8494    1.4243 C   0  0  0  0  0  0  0  0  0  0  0  0
   -7.1563   -6.0831    0.4625 C   0  0  0  0  0  0  0  0  0  0  0  0
   -7.0450   -4.1325    1.9133 C   0  0  0  0  0  0  0  0  0  0  0  0
   -7.7394   -5.2469    1.4256 C   0  0  0  0  0  0  0  0  0  0  0  0
   -9.0850   -5.5443    1.9346 N   0  3  0  0  0  0  0  0  0  0  0  0
   -9.6668   -6.5393    1.4767 O   0  0  0  0  0  0  0  0  0  0  0  0
   -9.5599   -4.7822    2.7869 O   0  5  0  0  0  0  0  0  0  0  0  0
    1.0383   -2.5335    0.0576 H   0  0  0  0  0  0  0  0  0  0  0  0
   -3.4773    0.0756   -0.0912 H   0  0  0  0  0  0  0  0  0  0  0  0
   -1.3652   -3.3467    0.0045 H   0  0  0  0  0  0  0  0  0  0  0  0
   -1.8716    1.9803   -0.0583 H   0  0  0  0  0  0  0  0  0  0  0  0
    0.8842    2.4594   -0.0113 H   0  0  0  0  0  0  0  0  0  0  0  0
    3.1311   -1.2097    0.0685 H   0  0  0  0  0  0  0  0  0  0  0  0
   -4.2021   -2.1817   -0.0704 H   0  0  0  0  0  0  0  0  0  0  0  0
    3.0614    1.2587    0.0325 H   0  0  0  0  0  0  0  0  0  0  0  0
   -5.4189   -6.4671   -0.7497 H   0  0  0  0  0  0  0  0  0  0  0  0
   -5.2275   -2.9945    1.8200 H   0  0  0  0  0  0  0  0  0  0  0  0
   -7.6818   -6.9617    0.0887 H   0  0  0  0  0  0  0  0  0  0  0  0
   -7.4755   -3.4803    2.6696 H   0  0  0  0  0  0  0  0  0  0  0  0
  1  2  1  0  0  0  0
  1  3  1  0  0  0  0
  1  4  2  0  0  0  0
  2  5  2  0  0  0  0
  2  6  1  0  0  0  0
  3  7  1  0  0  0  0
  3  8  2  0  0  0  0
  4  9  1  0  0  0  0
  4 23  1  0  0  0  0
  5  7  1  0  0  0  0
  5 24  1  0  0  0  0
  6 10  2  0  0  0  0
  6 25  1  0  0  0  0
  7 26  1  0  0  0  0
  8 11  1  0  0  0  0
  8 27  1  0  0  0  0
  9 11  2  0  0  0  0
  9 28  1  0  0  0  0
 10 12  1  0  0  0  0
 10 29  1  0  0  0  0
 11 30  1  0  0  0  0
 12 13  1  0  0  0  0
 12 14  2  0  0  0  0
 13 15  2  0  0  0  0
 13 16  1  0  0  0  0
 15 17  1  0  0  0  0
 15 31  1  0  0  0  0
 16 18  2  0  0  0  0
 16 32  1  0  0  0  0
 17 19  2  0  0  0  0
 17 33  1  0  0  0  0
 18 19  1  0  0  0  0
 18 34  1  0  0  0  0
 19 20  1  0  0  0  0
 20 21  2  0  0  0  0
 20 22  1  0  0  0  0
M  CHG  2  20   1  22  -1
M  END
>  <Mol_ID>
8439

>  <Formula>
C17H12N2O3

>  <MolWeight>
292.28878

>  <Cat>
P2172

>  <Name>
WAY-301417

>  <Synonyms>
N/A

>  <Target>
Anti inflammatory,Anti-infection

>  <Form>
free base

>  <CAS>
22883-33-6

>  <URL>
N/A

$$$$
