WAY-332080
 OpenBabel08302521453D

 55 58  0  0  0  0  0  0  0  0999 V2000
    0.3970    4.3269    1.6286 N   0  0  0  0  0  0  0  0  0  0  0  0
   -0.1723    3.1935    1.0799 C   0  0  0  0  0  0  0  0  0  0  0  0
   -0.2589    4.5117    2.7589 C   0  0  0  0  0  0  0  0  0  0  0  0
   -1.2278    3.5718    2.9944 O   0  0  0  0  0  0  0  0  0  0  0  0
   -1.1717    2.7397    1.9141 C   0  0  0  0  0  0  0  0  0  0  0  0
    1.3338    5.3709   -1.4969 C   0  0  0  0  0  0  0  0  0  0  0  0
    1.7920    6.6515   -1.2367 N   0  0  0  0  0  0  0  0  0  0  0  0
   -0.1596    5.1371   -1.4028 C   0  0  0  0  0  0  0  0  0  0  0  0
   -0.6862    3.4096   -1.5881 S   0  0  3  0  0  0  0  0  0  0  0  0
    2.8240    9.2511   -1.7745 N   0  0  0  0  0  0  0  0  0  0  0  0
    0.2762    2.6690   -0.2336 C   0  0  0  0  0  0  0  0  0  0  0  0
   -0.1445    5.5931    3.7324 C   0  0  0  0  0  0  0  0  0  0  0  0
    0.9772    7.8316   -0.9146 C   0  0  0  0  0  0  0  0  0  0  0  0
    3.2399    6.8917   -1.2145 C   0  0  0  0  0  0  0  0  0  0  0  0
    1.3642    9.0598   -1.7737 C   0  0  0  0  0  0  0  0  0  0  0  0
    3.6193    8.0633   -2.1267 C   0  0  0  0  0  0  0  0  0  0  0  0
    2.1290    4.4772   -1.8005 O   0  0  0  0  0  0  0  0  0  0  0  0
    3.4106   10.4319   -1.3707 C   0  0  0  0  0  0  0  0  0  0  0  0
   -0.1942    2.8780   -2.9021 O   0  0  0  0  0  0  0  0  0  0  0  0
   -2.1508    1.6413    1.8762 C   0  0  0  0  0  0  0  0  0  0  0  0
    0.7417    6.6555    3.4963 C   0  0  0  0  0  0  0  0  0  0  0  0
   -0.9229    5.6171    4.8998 C   0  0  0  0  0  0  0  0  0  0  0  0
    2.8132   11.6758   -1.6269 C   0  0  0  0  0  0  0  0  0  0  0  0
    4.6414   10.4526   -0.6974 C   0  0  0  0  0  0  0  0  0  0  0  0
    0.8372    7.7194    4.3976 C   0  0  0  0  0  0  0  0  0  0  0  0
   -0.8250    6.6783    5.8028 C   0  0  0  0  0  0  0  0  0  0  0  0
    3.4135   12.8779   -1.2354 C   0  0  0  0  0  0  0  0  0  0  0  0
    5.2496   11.6471   -0.3026 C   0  0  0  0  0  0  0  0  0  0  0  0
    0.0526    7.7300    5.5492 C   0  0  0  0  0  0  0  0  0  0  0  0
    4.6347   12.8627   -0.5723 C   0  0  0  0  0  0  0  0  0  0  0  0
   -0.6537    5.6975   -2.2019 H   0  0  0  0  0  0  0  0  0  0  0  0
   -0.5445    5.5018   -0.4461 H   0  0  0  0  0  0  0  0  0  0  0  0
    1.3472    2.8220   -0.3704 H   0  0  0  0  0  0  0  0  0  0  0  0
    0.1072    1.5882   -0.2835 H   0  0  0  0  0  0  0  0  0  0  0  0
   -0.0898    7.6302   -1.0322 H   0  0  0  0  0  0  0  0  0  0  0  0
    1.1576    8.0520    0.1452 H   0  0  0  0  0  0  0  0  0  0  0  0
    3.5051    7.1128   -0.1728 H   0  0  0  0  0  0  0  0  0  0  0  0
    3.8031    6.0024   -1.5115 H   0  0  0  0  0  0  0  0  0  0  0  0
    1.0296    8.9065   -2.8063 H   0  0  0  0  0  0  0  0  0  0  0  0
    0.8237    9.9258   -1.3775 H   0  0  0  0  0  0  0  0  0  0  0  0
    3.4034    7.8003   -3.1709 H   0  0  0  0  0  0  0  0  0  0  0  0
    4.7008    8.2311   -2.0740 H   0  0  0  0  0  0  0  0  0  0  0  0
   -2.0576    1.0132    2.7670 H   0  0  0  0  0  0  0  0  0  0  0  0
   -3.1676    2.0449    1.8431 H   0  0  0  0  0  0  0  0  0  0  0  0
   -2.0078    1.0098    0.9949 H   0  0  0  0  0  0  0  0  0  0  0  0
    1.3618    6.6602    2.6013 H   0  0  0  0  0  0  0  0  0  0  0  0
   -1.6183    4.8085    5.1157 H   0  0  0  0  0  0  0  0  0  0  0  0
    1.8782   11.7313   -2.1781 H   0  0  0  0  0  0  0  0  0  0  0  0
    5.1473    9.5261   -0.4405 H   0  0  0  0  0  0  0  0  0  0  0  0
    1.5233    8.5393    4.1996 H   0  0  0  0  0  0  0  0  0  0  0  0
   -1.4367    6.6831    6.7015 H   0  0  0  0  0  0  0  0  0  0  0  0
    2.9287   13.8237   -1.4623 H   0  0  0  0  0  0  0  0  0  0  0  0
    6.2043   11.6185    0.2153 H   0  0  0  0  0  0  0  0  0  0  0  0
    0.1253    8.5576    6.2504 H   0  0  0  0  0  0  0  0  0  0  0  0
    5.1075   13.7931   -0.2711 H   0  0  0  0  0  0  0  0  0  0  0  0
  2  1  1  0  0  0  0
  3  1  2  0  0  0  0
  4  3  1  0  0  0  0
  4  5  1  0  0  0  0
  5  2  2  0  0  0  0
  6  8  1  0  0  0  0
  7  6  1  0  0  0  0
  8  9  1  0  0  0  0
  8 31  1  0  0  0  0
  8 32  1  0  0  0  0
  9 11  1  0  0  0  0
 10 16  1  0  0  0  0
 11  2  1  0  0  0  0
 11 33  1  0  0  0  0
 11 34  1  0  0  0  0
 12  3  1  0  0  0  0
 13  7  1  0  0  0  0
 13 35  1  0  0  0  0
 13 36  1  0  0  0  0
 14  7  1  0  0  0  0
 14 37  1  0  0  0  0
 14 38  1  0  0  0  0
 15 13  1  0  0  0  0
 15 10  1  0  0  0  0
 15 39  1  0  0  0  0
 15 40  1  0  0  0  0
 16 14  1  0  0  0  0
 16 41  1  0  0  0  0
 16 42  1  0  0  0  0
 17  6  2  0  0  0  0
 18 10  1  0  0  0  0
 19  9  2  0  0  0  0
 20  5  1  0  0  0  0
 20 43  1  0  0  0  0
 20 44  1  0  0  0  0
 20 45  1  0  0  0  0
 21 12  2  0  0  0  0
 21 46  1  0  0  0  0
 22 12  1  0  0  0  0
 22 47  1  0  0  0  0
 23 18  2  0  0  0  0
 23 48  1  0  0  0  0
 24 18  1  0  0  0  0
 24 49  1  0  0  0  0
 25 21  1  0  0  0  0
 25 29  2  0  0  0  0
 25 50  1  0  0  0  0
 26 22  2  0  0  0  0
 26 51  1  0  0  0  0
 27 23  1  0  0  0  0
 27 52  1  0  0  0  0
 28 24  2  0  0  0  0
 28 53  1  0  0  0  0
 29 26  1  0  0  0  0
 29 54  1  0  0  0  0
 30 28  1  0  0  0  0
 30 27  2  0  0  0  0
 30 55  1  0  0  0  0
M  END
>  <Mol_ID>
9264

>  <Formula>
C23H25N3O3S

>  <MolWeight>
423.5279

>  <Cat>
P2720

>  <Name>
WAY-332080

>  <Synonyms>
N/A

>  <Target>
beta-catenin

>  <Form>
free base

>  <CAS>
1015859-61-6

>  <URL>
N/A

$$$$
