WAY-325670-A
 OpenBabel08302521433D

 48 50  0  0  0  0  0  0  0  0999 V2000
   -1.1706   -0.2073    0.8804 N   0  0  0  0  0  0  0  0  0  0  0  0
   -2.4731   -0.0953    1.3782 C   0  0  0  0  0  0  0  0  0  0  0  0
    1.4262   -0.1200   -0.4971 N   0  0  0  0  0  0  0  0  0  0  0  0
    3.7575    1.1894   -2.0779 C   0  0  0  0  0  0  0  0  0  0  0  0
    2.2808    1.4016   -2.3684 C   0  0  0  0  0  0  0  0  0  0  0  0
    4.7820    2.0840   -2.6836 C   0  0  0  0  0  0  0  0  0  0  0  0
   -0.8347   -1.2577   -0.0946 C   0  0  0  0  0  0  0  0  0  0  0  0
   -0.5526    1.0981    0.5628 C   0  0  0  0  0  0  0  0  0  0  0  0
   -2.7264    0.4477    2.6623 C   0  0  0  0  0  0  0  0  0  0  0  0
    4.1883    0.3006   -1.3378 O   0  0  0  0  0  0  0  0  0  0  0  0
    1.3718    0.2368   -1.9173 C   0  0  0  0  0  0  0  0  0  0  0  0
    5.9508    2.3174   -1.9397 C   0  0  0  0  0  0  0  0  0  0  0  0
    4.6976    2.5512   -3.9986 C   0  0  0  0  0  0  0  0  0  0  0  0
    0.9794    0.9391    0.4239 C   0  0  0  0  0  0  0  0  0  0  0  0
    0.7076   -1.3808   -0.1948 C   0  0  0  0  0  0  0  0  0  0  0  0
    6.9867    3.3414   -3.8546 C   0  0  0  0  0  0  0  0  0  0  0  0
    5.8085    3.1748   -4.5846 C   0  0  0  0  0  0  0  0  0  0  0  0
    7.0523    2.9432   -2.5229 C   0  0  0  0  0  0  0  0  0  0  0  0
    8.5251    4.0505   -4.6936 Br  0  0  0  0  0  0  0  0  0  0  0  0
   -1.7717    0.8905    3.5506 O   0  0  0  0  0  0  0  0  0  0  0  0
   -3.5903   -0.4389    0.5903 C   0  0  0  0  0  0  0  0  0  0  0  0
   -4.0413    0.6825    3.0902 C   0  0  0  0  0  0  0  0  0  0  0  0
   -0.6688    0.0179    3.7820 C   0  0  0  0  0  0  0  0  0  0  0  0
   -4.8980   -0.2028    1.0270 C   0  0  0  0  0  0  0  0  0  0  0  0
   -5.1237    0.3652    2.2749 C   0  0  0  0  0  0  0  0  0  0  0  0
    2.1457    1.5055   -3.4513 H   0  0  0  0  0  0  0  0  0  0  0  0
    1.9634    2.3451   -1.9081 H   0  0  0  0  0  0  0  0  0  0  0  0
   -1.2400   -2.2223    0.2311 H   0  0  0  0  0  0  0  0  0  0  0  0
   -1.2515   -1.0257   -1.0823 H   0  0  0  0  0  0  0  0  0  0  0  0
   -0.9763    1.4943   -0.3664 H   0  0  0  0  0  0  0  0  0  0  0  0
   -0.7406    1.8367    1.3493 H   0  0  0  0  0  0  0  0  0  0  0  0
    1.6770   -0.6408   -2.5028 H   0  0  0  0  0  0  0  0  0  0  0  0
    0.3409    0.4656   -2.2134 H   0  0  0  0  0  0  0  0  0  0  0  0
    6.0212    1.9641   -0.9115 H   0  0  0  0  0  0  0  0  0  0  0  0
    3.8166    2.3841   -4.6080 H   0  0  0  0  0  0  0  0  0  0  0  0
    1.3994    0.7004    1.4098 H   0  0  0  0  0  0  0  0  0  0  0  0
    1.4188    1.9078    0.1655 H   0  0  0  0  0  0  0  0  0  0  0  0
    1.0808   -1.7475    0.7727 H   0  0  0  0  0  0  0  0  0  0  0  0
    0.9710   -2.1597   -0.9211 H   0  0  0  0  0  0  0  0  0  0  0  0
    5.7625    3.4855   -5.6265 H   0  0  0  0  0  0  0  0  0  0  0  0
    7.9642    3.0710   -1.9441 H   0  0  0  0  0  0  0  0  0  0  0  0
   -3.4563   -0.8485   -0.4062 H   0  0  0  0  0  0  0  0  0  0  0  0
   -4.2146    1.1290    4.0659 H   0  0  0  0  0  0  0  0  0  0  0  0
   -0.9928   -0.9760    4.1061 H   0  0  0  0  0  0  0  0  0  0  0  0
    0.0038   -0.0599    2.9317 H   0  0  0  0  0  0  0  0  0  0  0  0
   -0.0728    0.4628    4.5854 H   0  0  0  0  0  0  0  0  0  0  0  0
   -5.7370   -0.4387    0.3772 H   0  0  0  0  0  0  0  0  0  0  0  0
   -6.1381    0.5738    2.6080 H   0  0  0  0  0  0  0  0  0  0  0  0
  2  1  1  0  0  0  0
  3 14  1  0  0  0  0
  3 15  1  0  0  0  0
  4  5  1  0  0  0  0
  5 11  1  0  0  0  0
  5 26  1  0  0  0  0
  5 27  1  0  0  0  0
  6  4  1  0  0  0  0
  7  1  1  0  0  0  0
  7 28  1  0  0  0  0
  7 29  1  0  0  0  0
  8  1  1  0  0  0  0
  8 30  1  0  0  0  0
  8 31  1  0  0  0  0
  9  2  2  0  0  0  0
 10  4  2  0  0  0  0
 11  3  1  0  0  0  0
 11 32  1  0  0  0  0
 11 33  1  0  0  0  0
 12  6  2  0  0  0  0
 12 34  1  0  0  0  0
 13  6  1  0  0  0  0
 13 35  1  0  0  0  0
 14  8  1  0  0  0  0
 14 36  1  0  0  0  0
 14 37  1  0  0  0  0
 15  7  1  0  0  0  0
 15 38  1  0  0  0  0
 15 39  1  0  0  0  0
 16 17  1  0  0  0  0
 16 18  2  0  0  0  0
 17 13  2  0  0  0  0
 17 40  1  0  0  0  0
 18 12  1  0  0  0  0
 18 41  1  0  0  0  0
 19 16  1  0  0  0  0
 20  9  1  0  0  0  0
 21  2  1  0  0  0  0
 21 42  1  0  0  0  0
 22  9  1  0  0  0  0
 22 43  1  0  0  0  0
 23 20  1  0  0  0  0
 23 44  1  0  0  0  0
 23 45  1  0  0  0  0
 23 46  1  0  0  0  0
 24 21  2  0  0  0  0
 24 47  1  0  0  0  0
 25 24  1  0  0  0  0
 25 22  2  0  0  0  0
 25 48  1  0  0  0  0
M  END
>  <Mol_ID>
8871

>  <Formula>
C20H23BrN2O2

>  <MolWeight>
403.31282

>  <Cat>
P2419

>  <Name>
WAY-325670-A

>  <Synonyms>
N/A

>  <Target>
adenosine deaminase

>  <Form>
free base

>  <CAS>
869355-78-2

>  <URL>
N/A

$$$$
