WAY-323543
 OpenBabel08302521423D

 53 55  0  0  0  0  0  0  0  0999 V2000
    1.0095   -0.0298    0.0578 S   0  0  0  0  0  0  0  0  0  0  0  0
    0.5140   -0.7744   -1.4216 N   0  0  0  0  0  0  0  0  0  0  0  0
    0.4214   -2.8775   -5.2495 C   0  0  0  0  0  0  0  0  0  0  0  0
    1.2849   -2.6406   -6.3034 N   0  0  0  0  0  0  0  0  0  0  0  0
    2.3697    0.4324   -0.1306 O   0  0  0  0  0  0  0  0  0  0  0  0
    0.6648   -0.9129    1.1519 O   0  0  0  0  0  0  0  0  0  0  0  0
   -0.0570    1.3816    0.1916 C   0  0  0  0  0  0  0  0  0  0  0  0
    0.8590   -2.1826   -3.9574 C   0  0  0  0  0  0  0  0  0  0  0  0
    0.9462   -0.0321   -2.6445 C   0  0  0  0  0  0  0  0  0  0  0  0
    0.8837   -2.2200   -1.4632 C   0  0  0  0  0  0  0  0  0  0  0  0
   -0.5906   -3.5572   -5.3298 O   0  0  0  0  0  0  0  0  0  0  0  0
    0.4301   -0.7119   -3.9162 C   0  0  0  0  0  0  0  0  0  0  0  0
    0.3095   -2.8787   -2.7127 C   0  0  0  0  0  0  0  0  0  0  0  0
    1.1914   -3.2121   -7.6551 C   0  0  0  0  0  0  0  0  0  0  0  0
   -1.4398    1.1769    0.2361 C   0  0  0  0  0  0  0  0  0  0  0  0
    0.4805    2.6645    0.3314 C   0  0  0  0  0  0  0  0  0  0  0  0
   -0.0836   -2.7772   -8.3806 C   0  0  0  0  0  0  0  0  0  0  0  0
    1.5991   -4.6964   -7.7184 C   0  0  0  0  0  0  0  0  0  0  0  0
   -2.2908    2.2675    0.4119 C   0  0  0  0  0  0  0  0  0  0  0  0
   -0.3783    3.7503    0.5080 C   0  0  0  0  0  0  0  0  0  0  0  0
   -0.4011   -3.5476   -9.6582 C   0  0  0  0  0  0  0  0  0  0  0  0
    0.5018   -5.7527   -7.6179 C   0  0  0  0  0  0  0  0  0  0  0  0
   -1.7605    3.5518    0.5477 C   0  0  0  0  0  0  0  0  0  0  0  0
   -0.2699   -5.9963   -8.9131 C   0  0  0  0  0  0  0  0  0  0  0  0
   -1.1516   -4.8462   -9.3795 C   0  0  0  0  0  0  0  0  0  0  0  0
    2.1310   -2.1187   -6.1040 H   0  0  0  0  0  0  0  0  0  0  0  0
    1.9559   -2.2378   -3.9194 H   0  0  0  0  0  0  0  0  0  0  0  0
    2.0409    0.0163   -2.6830 H   0  0  0  0  0  0  0  0  0  0  0  0
    0.5567    0.9906   -2.6102 H   0  0  0  0  0  0  0  0  0  0  0  0
    0.4685   -2.7343   -0.5898 H   0  0  0  0  0  0  0  0  0  0  0  0
    1.9749   -2.3268   -1.4413 H   0  0  0  0  0  0  0  0  0  0  0  0
    0.8062   -0.1762   -4.7958 H   0  0  0  0  0  0  0  0  0  0  0  0
   -0.6651   -0.6417   -3.9525 H   0  0  0  0  0  0  0  0  0  0  0  0
   -0.7871   -2.8230   -2.6942 H   0  0  0  0  0  0  0  0  0  0  0  0
    0.5732   -3.9425   -2.7241 H   0  0  0  0  0  0  0  0  0  0  0  0
    2.0111   -2.6939   -8.1759 H   0  0  0  0  0  0  0  0  0  0  0  0
   -1.8510    0.1729    0.1542 H   0  0  0  0  0  0  0  0  0  0  0  0
    1.5562    2.8232    0.3278 H   0  0  0  0  0  0  0  0  0  0  0  0
   -0.9531   -2.7993   -7.7157 H   0  0  0  0  0  0  0  0  0  0  0  0
    0.0421   -1.7180   -8.6467 H   0  0  0  0  0  0  0  0  0  0  0  0
    2.1408   -4.8650   -8.6603 H   0  0  0  0  0  0  0  0  0  0  0  0
    2.3351   -4.8906   -6.9269 H   0  0  0  0  0  0  0  0  0  0  0  0
   -3.3667    2.1160    0.4580 H   0  0  0  0  0  0  0  0  0  0  0  0
    0.0278    4.7520    0.6309 H   0  0  0  0  0  0  0  0  0  0  0  0
   -1.0544   -2.9157  -10.2734 H   0  0  0  0  0  0  0  0  0  0  0  0
    0.5012   -3.7291  -10.2533 H   0  0  0  0  0  0  0  0  0  0  0  0
   -0.1831   -5.5431   -6.7936 H   0  0  0  0  0  0  0  0  0  0  0  0
    0.9948   -6.7033   -7.3701 H   0  0  0  0  0  0  0  0  0  0  0  0
   -2.4261    4.3992    0.6966 H   0  0  0  0  0  0  0  0  0  0  0  0
   -0.9149   -6.8725   -8.7641 H   0  0  0  0  0  0  0  0  0  0  0  0
    0.4273   -6.2687   -9.7153 H   0  0  0  0  0  0  0  0  0  0  0  0
   -1.9512   -4.6725   -8.6490 H   0  0  0  0  0  0  0  0  0  0  0  0
   -1.6493   -5.1604  -10.3057 H   0  0  0  0  0  0  0  0  0  0  0  0
  2  1  1  0  0  0  0
  3  8  1  0  0  0  0
  4  3  1  0  0  0  0
  4 26  1  0  0  0  0
  5  1  2  0  0  0  0
  6  1  2  0  0  0  0
  7  1  1  0  0  0  0
  8 13  1  0  0  0  0
  8 12  1  0  0  0  0
  8 27  1  0  0  0  0
  9  2  1  0  0  0  0
  9 28  1  0  0  0  0
  9 29  1  0  0  0  0
 10  2  1  0  0  0  0
 10 30  1  0  0  0  0
 10 31  1  0  0  0  0
 11  3  2  0  0  0  0
 12  9  1  0  0  0  0
 12 32  1  0  0  0  0
 12 33  1  0  0  0  0
 13 10  1  0  0  0  0
 13 34  1  0  0  0  0
 13 35  1  0  0  0  0
 14  4  1  0  0  0  0
 14 36  1  0  0  0  0
 15  7  2  0  0  0  0
 15 37  1  0  0  0  0
 16  7  1  0  0  0  0
 16 38  1  0  0  0  0
 17 14  1  0  0  0  0
 17 39  1  0  0  0  0
 17 40  1  0  0  0  0
 18 14  1  0  0  0  0
 18 41  1  0  0  0  0
 18 42  1  0  0  0  0
 19 15  1  0  0  0  0
 19 43  1  0  0  0  0
 20 16  2  0  0  0  0
 20 44  1  0  0  0  0
 21 17  1  0  0  0  0
 21 45  1  0  0  0  0
 21 46  1  0  0  0  0
 22 18  1  0  0  0  0
 22 47  1  0  0  0  0
 22 48  1  0  0  0  0
 23 20  1  0  0  0  0
 23 19  2  0  0  0  0
 23 49  1  0  0  0  0
 24 22  1  0  0  0  0
 24 50  1  0  0  0  0
 24 51  1  0  0  0  0
 25 21  1  0  0  0  0
 25 24  1  0  0  0  0
 25 52  1  0  0  0  0
 25 53  1  0  0  0  0
M  END
>  <Mol_ID>
8582

>  <Formula>
C19H28N2O3S

>  <MolWeight>
364.50222

>  <Cat>
P2272

>  <Name>
WAY-323543

>  <Synonyms>
N/A

>  <Target>
soluble epoxide hydrolase

>  <Form>
free base

>  <CAS>
854041-16-0

>  <URL>
N/A

$$$$
