WAY-658674
 OpenBabel08302521433D

 31 32  0  0  0  0  0  0  0  0999 V2000
    0.2155   -1.0468   -0.4614 C   0  0  0  0  0  0  0  0  0  0  0  0
    0.5431   -2.2258    0.1512 N   0  0  0  0  0  0  0  0  0  0  0  0
   -0.0644   -0.0106    0.2503 N   0  0  0  0  0  0  0  0  0  0  0  0
    1.2413   -3.2965   -0.3558 C   0  0  0  0  0  0  0  0  0  0  0  0
    0.1690   -0.8811   -2.1884 S   0  0  0  0  0  0  0  0  0  0  0  0
    0.5328   -3.7274    3.9992 C   0  0  0  0  0  0  0  0  0  0  0  0
    1.2527   -4.2803    2.9221 C   0  0  0  0  0  0  0  0  0  0  0  0
    0.5824   -4.5295    1.7452 O   0  0  0  0  0  0  0  0  0  0  0  0
    1.1681   -3.5223    5.2367 C   0  0  0  0  0  0  0  0  0  0  0  0
    1.8449   -3.2824   -1.4456 O   0  0  0  0  0  0  0  0  0  0  0  0
    2.5774   -4.6523    3.1280 C   0  0  0  0  0  0  0  0  0  0  0  0
    1.3263   -4.5508    0.5254 C   0  0  0  0  0  0  0  0  0  0  0  0
    2.4784   -3.9364    5.4345 C   0  0  0  0  0  0  0  0  0  0  0  0
    3.1808   -4.5020    4.3796 C   0  0  0  0  0  0  0  0  0  0  0  0
   -0.3409    1.1352   -0.6497 C   0  0  0  0  0  0  0  0  0  0  0  0
    0.3015    0.9043   -2.0102 C   0  0  0  0  0  0  0  0  0  0  0  0
   -0.9253   -3.3873    3.9237 C   0  0  0  0  0  0  0  0  0  0  0  0
    0.4396   -2.1861    1.1633 H   0  0  0  0  0  0  0  0  0  0  0  0
    0.6146   -3.0999    6.0747 H   0  0  0  0  0  0  0  0  0  0  0  0
    3.1609   -5.1464    2.3614 H   0  0  0  0  0  0  0  0  0  0  0  0
    0.9073   -5.3555   -0.0928 H   0  0  0  0  0  0  0  0  0  0  0  0
    2.3814   -4.8189    0.6421 H   0  0  0  0  0  0  0  0  0  0  0  0
    2.9292   -3.8574    6.4167 H   0  0  0  0  0  0  0  0  0  0  0  0
    4.1903   -4.8679    4.5358 H   0  0  0  0  0  0  0  0  0  0  0  0
    0.0539    2.0569   -0.2065 H   0  0  0  0  0  0  0  0  0  0  0  0
   -1.4262    1.2592   -0.7455 H   0  0  0  0  0  0  0  0  0  0  0  0
   -0.2085    1.4463   -2.8114 H   0  0  0  0  0  0  0  0  0  0  0  0
    1.3582    1.1926   -2.0021 H   0  0  0  0  0  0  0  0  0  0  0  0
   -1.3902   -3.4499    4.9142 H   0  0  0  0  0  0  0  0  0  0  0  0
   -1.0728   -2.3764    3.5372 H   0  0  0  0  0  0  0  0  0  0  0  0
   -1.4354   -4.1256    3.3006 H   0  0  0  0  0  0  0  0  0  0  0  0
  2  1  1  0  0  0  0
  2 18  1  0  0  0  0
  3  1  2  0  0  0  0
  4  2  1  0  0  0  0
  5  1  1  0  0  0  0
  6  7  2  0  0  0  0
  7  8  1  0  0  0  0
  8 12  1  0  0  0  0
  9  6  1  0  0  0  0
  9 19  1  0  0  0  0
 10  4  2  0  0  0  0
 11  7  1  0  0  0  0
 11 20  1  0  0  0  0
 12  4  1  0  0  0  0
 12 21  1  0  0  0  0
 12 22  1  0  0  0  0
 13 14  1  0  0  0  0
 13  9  2  0  0  0  0
 13 23  1  0  0  0  0
 14 11  2  0  0  0  0
 14 24  1  0  0  0  0
 15  3  1  0  0  0  0
 15 25  1  0  0  0  0
 15 26  1  0  0  0  0
 16  5  1  0  0  0  0
 16 15  1  0  0  0  0
 16 27  1  0  0  0  0
 16 28  1  0  0  0  0
 17  6  1  0  0  0  0
 17 29  1  0  0  0  0
 17 30  1  0  0  0  0
 17 31  1  0  0  0  0
M  END
>  <Mol_ID>
8827

>  <Formula>
C12H13ClN2O2S

>  <MolWeight>
284.76182

>  <Cat>
P3173

>  <Name>
WAY-658674

>  <Synonyms>
N/A

>  <Target>
Others

>  <Form>
free base

>  <CAS>
42310-54-3

>  <URL>
N/A

$$$$
