WAY-324242-A
 OpenBabel08302521423D

 51 53  0  0  0  0  0  0  0  0999 V2000
    1.0887    0.2273    0.3543 C   0  0  0  0  0  0  0  0  0  0  0  0
    0.5358    0.4391   -1.0647 C   0  0  3  0  0  0  0  0  0  0  0  0
   -3.0474   -3.0690   -0.7173 C   0  0  0  0  0  0  0  0  0  0  0  0
    2.3930   -0.2332    0.5028 N   0  0  0  0  0  0  0  0  0  0  0  0
   -1.3417   -1.2284   -0.9555 N   0  0  0  0  0  0  0  0  0  0  0  0
   -0.0686   -0.8679   -1.6056 C   0  0  0  0  0  0  0  0  0  0  0  0
   -1.8012   -2.5542   -1.4128 C   0  0  0  0  0  0  0  0  0  0  0  0
   -4.2147   -3.5092   -1.3649 C   0  0  0  0  0  0  0  0  0  0  0  0
   -2.9724   -3.2060    0.6853 C   0  0  0  0  0  0  0  0  0  0  0  0
    0.3613    0.3693    1.3404 O   0  0  0  0  0  0  0  0  0  0  0  0
   -5.2599   -4.0810   -0.6118 C   0  0  0  0  0  0  0  0  0  0  0  0
   -4.0093   -3.7847    1.4208 C   0  0  0  0  0  0  0  0  0  0  0  0
   -0.4910    1.5756   -1.1216 C   0  0  0  0  0  0  0  0  0  0  0  0
   -5.1601   -4.2175    0.7762 C   0  0  0  0  0  0  0  0  0  0  0  0
   -3.8220   -4.0282    3.2852 Br  0  0  0  0  0  0  0  0  0  0  0  0
   -2.3408   -0.1668   -1.1316 C   0  0  0  0  0  0  0  0  0  0  0  0
   -4.4287   -3.5885   -2.7188 O   0  0  0  0  0  0  0  0  0  0  0  0
    2.7973   -0.7320    1.8165 C   0  0  0  0  0  0  0  0  0  0  0  0
    3.5157    0.0694   -0.3827 C   0  0  0  0  0  0  0  0  0  0  0  0
   -1.8567    1.1748   -0.5749 C   0  0  0  0  0  0  0  0  0  0  0  0
   -4.1839   -2.4252   -3.4966 C   0  0  0  0  0  0  0  0  0  0  0  0
    4.3938   -1.1616   -0.5931 C   0  0  0  0  0  0  0  0  0  0  0  0
    3.5751   -2.0301    1.6492 C   0  0  0  0  0  0  0  0  0  0  0  0
    4.7750   -1.8471    0.7209 C   0  0  0  0  0  0  0  0  0  0  0  0
    1.3442    0.7354   -1.7335 H   0  0  0  0  0  0  0  0  0  0  0  0
   -0.2327   -0.7580   -2.6876 H   0  0  0  0  0  0  0  0  0  0  0  0
    0.6585   -1.6798   -1.4793 H   0  0  0  0  0  0  0  0  0  0  0  0
   -1.8907   -2.5719   -2.4967 H   0  0  0  0  0  0  0  0  0  0  0  0
   -1.0168   -3.2894   -1.1861 H   0  0  0  0  0  0  0  0  0  0  0  0
   -2.0680   -2.8762    1.2042 H   0  0  0  0  0  0  0  0  0  0  0  0
   -6.1507   -4.4379   -1.1155 H   0  0  0  0  0  0  0  0  0  0  0  0
   -0.1192    2.4549   -0.5845 H   0  0  0  0  0  0  0  0  0  0  0  0
   -0.6164    1.8762   -2.1704 H   0  0  0  0  0  0  0  0  0  0  0  0
   -5.9698   -4.6817    1.3317 H   0  0  0  0  0  0  0  0  0  0  0  0
   -3.2663   -0.4153   -0.5979 H   0  0  0  0  0  0  0  0  0  0  0  0
   -2.5964   -0.0463   -2.1905 H   0  0  0  0  0  0  0  0  0  0  0  0
    1.9322   -0.9094    2.4630 H   0  0  0  0  0  0  0  0  0  0  0  0
    3.4139    0.0405    2.2978 H   0  0  0  0  0  0  0  0  0  0  0  0
    4.0974    0.8653    0.1014 H   0  0  0  0  0  0  0  0  0  0  0  0
    3.2024    0.4679   -1.3460 H   0  0  0  0  0  0  0  0  0  0  0  0
   -1.8236    1.1244    0.5182 H   0  0  0  0  0  0  0  0  0  0  0  0
   -2.5867    1.9550   -0.8204 H   0  0  0  0  0  0  0  0  0  0  0  0
   -4.2643   -1.4957   -2.9275 H   0  0  0  0  0  0  0  0  0  0  0  0
   -3.2108   -2.5094   -3.9882 H   0  0  0  0  0  0  0  0  0  0  0  0
   -4.9253   -2.3929   -4.3008 H   0  0  0  0  0  0  0  0  0  0  0  0
    5.3032   -0.8775   -1.1344 H   0  0  0  0  0  0  0  0  0  0  0  0
    3.8533   -1.8776   -1.2238 H   0  0  0  0  0  0  0  0  0  0  0  0
    2.9095   -2.7947    1.2289 H   0  0  0  0  0  0  0  0  0  0  0  0
    3.9113   -2.3945    2.6259 H   0  0  0  0  0  0  0  0  0  0  0  0
    5.2243   -2.8238    0.5057 H   0  0  0  0  0  0  0  0  0  0  0  0
    5.5390   -1.2508    1.2340 H   0  0  0  0  0  0  0  0  0  0  0  0
  2  1  1  0  0  0  0
  2 25  1  0  0  0  0
  3  7  1  0  0  0  0
  4  1  1  0  0  0  0
  5  6  1  0  0  0  0
  5 16  1  0  0  0  0
  6  2  1  0  0  0  0
  6 26  1  0  0  0  0
  6 27  1  0  0  0  0
  7  5  1  0  0  0  0
  7 28  1  0  0  0  0
  7 29  1  0  0  0  0
  8  3  2  0  0  0  0
  9  3  1  0  0  0  0
  9 30  1  0  0  0  0
 10  1  2  0  0  0  0
 11  8  1  0  0  0  0
 11 14  2  0  0  0  0
 11 31  1  0  0  0  0
 12  9  2  0  0  0  0
 13  2  1  0  0  0  0
 13 32  1  0  0  0  0
 13 33  1  0  0  0  0
 14 12  1  0  0  0  0
 14 34  1  0  0  0  0
 15 12  1  0  0  0  0
 16 20  1  0  0  0  0
 16 35  1  0  0  0  0
 16 36  1  0  0  0  0
 17  8  1  0  0  0  0
 18  4  1  0  0  0  0
 18 37  1  0  0  0  0
 18 38  1  0  0  0  0
 19  4  1  0  0  0  0
 19 39  1  0  0  0  0
 19 40  1  0  0  0  0
 20 13  1  0  0  0  0
 20 41  1  0  0  0  0
 20 42  1  0  0  0  0
 21 17  1  0  0  0  0
 21 43  1  0  0  0  0
 21 44  1  0  0  0  0
 21 45  1  0  0  0  0
 22 19  1  0  0  0  0
 22 46  1  0  0  0  0
 22 47  1  0  0  0  0
 23 18  1  0  0  0  0
 23 24  1  0  0  0  0
 23 48  1  0  0  0  0
 23 49  1  0  0  0  0
 24 22  1  0  0  0  0
 24 50  1  0  0  0  0
 24 51  1  0  0  0  0
M  END
>  <Mol_ID>
8614

>  <Formula>
C19H27BrN2O2

>  <MolWeight>
395.33388

>  <Cat>
P2311

>  <Name>
WAY-324242-A

>  <Synonyms>
N/A

>  <Target>
others

>  <Form>
free base

>  <CAS>
524058-63-7

>  <URL>
N/A

$$$$
