WAY-619301
 OpenBabel08302521433D

 62 64  0  0  0  0  0  0  0  0999 V2000
    3.3610   -5.4864   -2.9413 N   0  0  0  0  0  0  0  0  0  0  0  0
    4.3083   -5.4093   -3.9257 C   0  0  0  0  0  0  0  0  0  0  0  0
    3.9107   -6.1167   -1.8529 C   0  0  0  0  0  0  0  0  0  0  0  0
    5.5304   -5.7220   -3.3704 N   0  0  0  0  0  0  0  0  0  0  0  0
    5.4407   -5.9911   -1.9512 C   0  0  0  0  0  0  0  0  0  0  0  0
    0.7892   -1.1837   -1.3271 C   0  0  0  0  0  0  0  0  0  0  0  0
    0.2287   -0.0693   -0.5913 N   0  0  0  0  0  0  0  0  0  0  0  0
    1.9242   -5.3539   -3.1557 C   0  0  0  0  0  0  0  0  0  0  0  0
    1.1549   -4.2589   -2.3533 C   0  0  0  0  0  0  0  0  0  0  0  0
    4.1415   -5.1956   -5.1172 O   0  0  0  0  0  0  0  0  0  0  0  0
    3.2937   -6.6041   -0.9167 O   0  0  0  0  0  0  0  0  0  0  0  0
    1.2243   -2.5194   -0.6590 C   0  0  0  0  0  0  0  0  0  0  0  0
    0.9606   -1.1072   -2.5542 O   0  0  0  0  0  0  0  0  0  0  0  0
    1.9164   -3.4732   -1.5357 O   0  0  0  0  0  0  0  0  0  0  0  0
   -0.0696   -4.1554   -2.4312 O   0  0  0  0  0  0  0  0  0  0  0  0
   -0.2237    1.0506   -1.5437 C   0  0  0  0  0  0  0  0  0  0  0  0
   -0.0390   -0.0585    0.9479 C   0  0  0  0  0  0  0  0  0  0  0  0
    6.2323   -7.2216   -1.5313 C   0  0  0  0  0  0  0  0  0  0  0  0
    5.8306   -4.7577   -1.1270 C   0  0  0  0  0  0  0  0  0  0  0  0
   -1.2640    0.7733    1.4766 C   0  0  0  0  0  0  0  0  0  0  0  0
    1.2239    0.2975    1.7841 C   0  0  0  0  0  0  0  0  0  0  0  0
   -0.0616    2.5235   -1.1167 C   0  0  0  0  0  0  0  0  0  0  0  0
   -1.5467    0.6809   -2.2623 C   0  0  0  0  0  0  0  0  0  0  0  0
    0.9705    0.3038    3.3247 C   0  0  0  0  0  0  0  0  0  0  0  0
   -0.8662    3.5649   -1.8946 C   0  0  0  0  0  0  0  0  0  0  0  0
   -2.2236    1.7822   -3.0788 C   0  0  0  0  0  0  0  0  0  0  0  0
   -1.4051    0.9398    3.0081 C   0  0  0  0  0  0  0  0  0  0  0  0
   -2.2280    3.1382   -2.4059 C   0  0  0  0  0  0  0  0  0  0  0  0
   -0.0999    1.3144    3.7119 C   0  0  0  0  0  0  0  0  0  0  0  0
    6.3766   -5.7337   -3.9261 H   0  0  0  0  0  0  0  0  0  0  0  0
    1.7511   -5.1829   -4.2202 H   0  0  0  0  0  0  0  0  0  0  0  0
    1.4846   -6.3169   -2.8848 H   0  0  0  0  0  0  0  0  0  0  0  0
    0.3566   -3.0137   -0.2071 H   0  0  0  0  0  0  0  0  0  0  0  0
    1.9479   -2.2820    0.1242 H   0  0  0  0  0  0  0  0  0  0  0  0
    0.5095    1.0213   -2.3633 H   0  0  0  0  0  0  0  0  0  0  0  0
   -0.2652   -1.1030    1.1982 H   0  0  0  0  0  0  0  0  0  0  0  0
    7.3072   -7.0000   -1.4984 H   0  0  0  0  0  0  0  0  0  0  0  0
    5.9367   -7.5709   -0.5351 H   0  0  0  0  0  0  0  0  0  0  0  0
    6.1026   -8.0611   -2.2263 H   0  0  0  0  0  0  0  0  0  0  0  0
    4.9521   -4.1949   -0.7962 H   0  0  0  0  0  0  0  0  0  0  0  0
    6.3736   -5.0445   -0.2167 H   0  0  0  0  0  0  0  0  0  0  0  0
    6.4670   -4.0750   -1.6974 H   0  0  0  0  0  0  0  0  0  0  0  0
   -1.2487    1.7915    1.1099 H   0  0  0  0  0  0  0  0  0  0  0  0
   -2.1911    0.3396    1.0885 H   0  0  0  0  0  0  0  0  0  0  0  0
    2.0239   -0.4214    1.5984 H   0  0  0  0  0  0  0  0  0  0  0  0
    1.6009    1.2857    1.5067 H   0  0  0  0  0  0  0  0  0  0  0  0
   -0.2364    2.6877   -0.0549 H   0  0  0  0  0  0  0  0  0  0  0  0
    0.9984    2.7820   -1.2171 H   0  0  0  0  0  0  0  0  0  0  0  0
   -1.3398   -0.1298   -2.9780 H   0  0  0  0  0  0  0  0  0  0  0  0
   -2.2635    0.2607   -1.5523 H   0  0  0  0  0  0  0  0  0  0  0  0
    1.8957    0.5513    3.8646 H   0  0  0  0  0  0  0  0  0  0  0  0
    0.6725   -0.6869    3.6577 H   0  0  0  0  0  0  0  0  0  0  0  0
   -1.0068    4.4482   -1.2570 H   0  0  0  0  0  0  0  0  0  0  0  0
   -0.2652    3.9097   -2.7450 H   0  0  0  0  0  0  0  0  0  0  0  0
   -3.2616    1.4840   -3.2845 H   0  0  0  0  0  0  0  0  0  0  0  0
   -1.7467    1.8701   -4.0641 H   0  0  0  0  0  0  0  0  0  0  0  0
   -2.1457    1.7238    3.2282 H   0  0  0  0  0  0  0  0  0  0  0  0
   -1.7956    0.0183    3.4508 H   0  0  0  0  0  0  0  0  0  0  0  0
   -2.9659    3.1462   -1.5927 H   0  0  0  0  0  0  0  0  0  0  0  0
   -2.5828    3.8865   -3.1336 H   0  0  0  0  0  0  0  0  0  0  0  0
    0.2090    2.3275    3.4468 H   0  0  0  0  0  0  0  0  0  0  0  0
   -0.2552    1.3037    4.7968 H   0  0  0  0  0  0  0  0  0  0  0  0
  2  1  1  0  0  0  0
  3  1  1  0  0  0  0
  4  2  1  0  0  0  0
  4 30  1  0  0  0  0
  5  3  1  0  0  0  0
  5  4  1  0  0  0  0
  6 12  1  0  0  0  0
  7  6  1  0  0  0  0
  8  1  1  0  0  0  0
  8 31  1  0  0  0  0
  8 32  1  0  0  0  0
  9  8  1  0  0  0  0
 10  2  2  0  0  0  0
 11  3  2  0  0  0  0
 12 14  1  0  0  0  0
 12 33  1  0  0  0  0
 12 34  1  0  0  0  0
 13  6  2  0  0  0  0
 14  9  1  0  0  0  0
 15  9  2  0  0  0  0
 16  7  1  0  0  0  0
 16 35  1  0  0  0  0
 17  7  1  0  0  0  0
 17 36  1  0  0  0  0
 18  5  1  0  0  0  0
 18 37  1  0  0  0  0
 18 38  1  0  0  0  0
 18 39  1  0  0  0  0
 19  5  1  0  0  0  0
 19 40  1  0  0  0  0
 19 41  1  0  0  0  0
 19 42  1  0  0  0  0
 20 17  1  0  0  0  0
 20 43  1  0  0  0  0
 20 44  1  0  0  0  0
 21 17  1  0  0  0  0
 21 45  1  0  0  0  0
 21 46  1  0  0  0  0
 22 16  1  0  0  0  0
 22 47  1  0  0  0  0
 22 48  1  0  0  0  0
 23 16  1  0  0  0  0
 23 49  1  0  0  0  0
 23 50  1  0  0  0  0
 24 21  1  0  0  0  0
 24 51  1  0  0  0  0
 24 52  1  0  0  0  0
 25 22  1  0  0  0  0
 25 28  1  0  0  0  0
 25 53  1  0  0  0  0
 25 54  1  0  0  0  0
 26 23  1  0  0  0  0
 26 55  1  0  0  0  0
 26 56  1  0  0  0  0
 27 20  1  0  0  0  0
 27 29  1  0  0  0  0
 27 57  1  0  0  0  0
 27 58  1  0  0  0  0
 28 26  1  0  0  0  0
 28 59  1  0  0  0  0
 28 60  1  0  0  0  0
 29 24  1  0  0  0  0
 29 61  1  0  0  0  0
 29 62  1  0  0  0  0
M  END
>  <Mol_ID>
8756

>  <Formula>
C21H33N3O5

>  <MolWeight>
407.50382

>  <Cat>
P2925

>  <Name>
WAY-619301

>  <Synonyms>
N/A

>  <Target>
Others

>  <Form>
free base

>  <CAS>
731001-03-9

>  <URL>
N/A

$$$$
