WAY-312778
 OpenBabel08302521393D

 40 42  0  0  0  0  0  0  0  0999 V2000
   -0.1325    1.0930   -0.0025 C   0  0  0  0  0  0  0  0  0  0  0  0
   -0.7059    2.4367   -0.1059 C   0  0  0  0  0  0  0  0  0  0  0  0
   -1.0117    0.0468    0.0895 O   0  0  0  0  0  0  0  0  0  0  0  0
    1.1588    0.5997   -0.0062 C   0  0  0  0  0  0  0  0  0  0  0  0
   -2.0927    2.6505   -0.1371 C   0  0  0  0  0  0  0  0  0  0  0  0
    0.1411    3.5551   -0.2166 C   0  0  0  0  0  0  0  0  0  0  0  0
   -0.2816   -1.1114    0.0794 C   0  0  0  0  0  0  0  0  0  0  0  0
    1.0623   -0.8132    0.0292 C   0  0  0  0  0  0  0  0  0  0  0  0
   -2.6064    3.9496   -0.2901 C   0  0  0  0  0  0  0  0  0  0  0  0
   -0.3724    4.8480   -0.3689 C   0  0  0  0  0  0  0  0  0  0  0  0
   -0.9855   -2.3590    0.1121 C   0  0  0  0  0  0  0  0  0  0  0  0
   -1.7498    5.0506   -0.4089 C   0  0  0  0  0  0  0  0  0  0  0  0
   -4.0606    4.1615   -0.3346 N   0  3  0  0  0  0  0  0  0  0  0  0
   -0.3903   -3.4870   -0.1348 N   0  0  0  0  0  0  0  0  0  0  0  0
   -4.7932    3.1672   -0.2169 O   0  0  0  0  0  0  0  0  0  0  0  0
   -4.4668    5.3212   -0.4876 O   0  5  0  0  0  0  0  0  0  0  0  0
   -1.2119   -4.5798   -0.0263 N   0  0  0  0  0  0  0  0  0  0  0  0
   -0.7048   -5.8425    0.2408 C   0  0  0  0  0  0  0  0  0  0  0  0
   -1.4508   -6.5501    1.1725 N   0  0  0  0  0  0  0  0  0  0  0  0
    0.6032   -6.5487   -0.5117 S   0  0  0  0  0  0  0  0  0  0  0  0
   -2.1313   -5.9613    2.2622 C   0  0  0  0  0  0  0  0  0  0  0  0
   -3.2841   -6.5635    2.7599 C   0  0  0  0  0  0  0  0  0  0  0  0
   -1.6786   -4.7665    2.8357 C   0  0  0  0  0  0  0  0  0  0  0  0
   -4.0286   -5.9108    3.7478 C   0  0  0  0  0  0  0  0  0  0  0  0
   -2.4101   -4.1229    3.8274 C   0  0  0  0  0  0  0  0  0  0  0  0
   -3.5998   -4.6876    4.2712 C   0  0  0  0  0  0  0  0  0  0  0  0
    2.0678    1.1789   -0.0612 H   0  0  0  0  0  0  0  0  0  0  0  0
   -2.7707    1.8020   -0.0558 H   0  0  0  0  0  0  0  0  0  0  0  0
    1.2228    3.4342   -0.1948 H   0  0  0  0  0  0  0  0  0  0  0  0
    1.8675   -1.5362    0.0143 H   0  0  0  0  0  0  0  0  0  0  0  0
    0.3073    5.6912   -0.4618 H   0  0  0  0  0  0  0  0  0  0  0  0
   -2.0570   -2.3096    0.3802 H   0  0  0  0  0  0  0  0  0  0  0  0
   -2.1319    6.0613   -0.5340 H   0  0  0  0  0  0  0  0  0  0  0  0
   -2.1640   -4.4241    0.2921 H   0  0  0  0  0  0  0  0  0  0  0  0
   -1.3409   -7.5572    1.1778 H   0  0  0  0  0  0  0  0  0  0  0  0
   -3.6512   -7.4973    2.3434 H   0  0  0  0  0  0  0  0  0  0  0  0
   -0.7296   -4.3271    2.5250 H   0  0  0  0  0  0  0  0  0  0  0  0
   -4.9578   -6.3485    4.1047 H   0  0  0  0  0  0  0  0  0  0  0  0
   -2.0473   -3.1892    4.2513 H   0  0  0  0  0  0  0  0  0  0  0  0
   -4.1869   -4.1807    5.0326 H   0  0  0  0  0  0  0  0  0  0  0  0
  1  2  1  0  0  0  0
  1  3  1  0  0  0  0
  1  4  2  0  0  0  0
  2  5  2  0  0  0  0
  2  6  1  0  0  0  0
  3  7  1  0  0  0  0
  4  8  1  0  0  0  0
  4 27  1  0  0  0  0
  5  9  1  0  0  0  0
  5 28  1  0  0  0  0
  6 10  2  0  0  0  0
  6 29  1  0  0  0  0
  7 11  1  0  0  0  0
  7  8  2  0  0  0  0
  8 30  1  0  0  0  0
  9 12  2  0  0  0  0
  9 13  1  0  0  0  0
 10 12  1  0  0  0  0
 10 31  1  0  0  0  0
 11 14  2  0  0  0  0
 11 32  1  0  0  0  0
 12 33  1  0  0  0  0
 13 15  2  0  0  0  0
 13 16  1  0  0  0  0
 14 17  1  0  0  0  0
 17 18  1  0  0  0  0
 17 34  1  0  0  0  0
 18 19  1  0  0  0  0
 18 20  2  0  0  0  0
 19 21  1  0  0  0  0
 19 35  1  0  0  0  0
 21 22  2  0  0  0  0
 21 23  1  0  0  0  0
 22 24  1  0  0  0  0
 22 36  1  0  0  0  0
 23 25  2  0  0  0  0
 23 37  1  0  0  0  0
 24 26  2  0  0  0  0
 24 38  1  0  0  0  0
 25 26  1  0  0  0  0
 25 39  1  0  0  0  0
 26 40  1  0  0  0  0
M  CHG  2  13   1  16  -1
M  END
>  <Mol_ID>
8140

>  <Formula>
C18H14N4O3S

>  <MolWeight>
366.39376

>  <Cat>
P2239

>  <Name>
WAY-312778

>  <Synonyms>
N/A

>  <Target>
others

>  <Form>
free base

>  <CAS>
301157-29-9

>  <URL>
N/A

$$$$
