WAY-300613
 OpenBabel08302521413D

 39 41  0  0  0  0  0  0  0  0999 V2000
    1.9710    2.4498    0.0528 C   0  0  0  0  0  0  0  0  0  0  0  0
    1.1211    3.2611    0.8335 C   0  0  0  0  0  0  0  0  0  0  0  0
    3.4095    2.2031    0.3693 C   0  0  0  0  0  0  0  0  0  0  0  0
    1.5048    1.9870   -1.2001 C   0  0  0  0  0  0  0  0  0  0  0  0
   -0.1362    3.6206    0.3076 C   0  0  0  0  0  0  0  0  0  0  0  0
    1.2702    3.8263    2.0681 O   0  0  0  0  0  0  0  0  0  0  0  0
    3.9553    0.9827   -0.0057 N   0  0  0  0  0  0  0  0  0  0  0  0
    4.0501    3.1250    0.8594 O   0  0  0  0  0  0  0  0  0  0  0  0
    0.2450    2.3468   -1.6877 C   0  0  0  0  0  0  0  0  0  0  0  0
   -0.5699    3.1817   -0.9401 C   0  0  0  0  0  0  0  0  0  0  0  0
    2.3327    3.4933    2.9422 C   0  0  0  0  0  0  0  0  0  0  0  0
    5.2678    0.7096    0.3179 C   0  0  0  0  0  0  0  0  0  0  0  0
    5.9890   -0.6353   -0.4524 S   0  0  0  0  0  0  0  0  0  0  0  0
    6.0545    1.3446    1.1499 N   0  0  0  0  0  0  0  0  0  0  0  0
    7.4512   -0.2362    0.3841 C   0  0  0  0  0  0  0  0  0  0  0  0
    7.3156    0.7998    1.1907 N   0  0  0  0  0  0  0  0  0  0  0  0
    8.7265   -0.9463    0.1976 C   0  0  0  0  0  0  0  0  0  0  0  0
    9.9273   -0.2579    0.4627 C   0  0  0  0  0  0  0  0  0  0  0  0
    8.8149   -2.2890   -0.1876 C   0  0  0  0  0  0  0  0  0  0  0  0
   11.1730   -0.8849    0.3503 C   0  0  0  0  0  0  0  0  0  0  0  0
   10.0633   -2.9176   -0.2936 C   0  0  0  0  0  0  0  0  0  0  0  0
   11.2456   -2.2232   -0.0249 C   0  0  0  0  0  0  0  0  0  0  0  0
   12.3863   -2.9641   -0.1607 O   0  0  0  0  0  0  0  0  0  0  0  0
   13.6174   -2.3129    0.1460 C   0  0  0  0  0  0  0  0  0  0  0  0
    2.1371    1.3959   -1.8565 H   0  0  0  0  0  0  0  0  0  0  0  0
   -0.7826    4.2797    0.8873 H   0  0  0  0  0  0  0  0  0  0  0  0
    3.4641    0.3103   -0.5686 H   0  0  0  0  0  0  0  0  0  0  0  0
   -0.0819    2.0100   -2.6685 H   0  0  0  0  0  0  0  0  0  0  0  0
   -1.5334    3.5074   -1.3241 H   0  0  0  0  0  0  0  0  0  0  0  0
    2.5736    2.4274    2.9359 H   0  0  0  0  0  0  0  0  0  0  0  0
    3.1996    4.1265    2.7402 H   0  0  0  0  0  0  0  0  0  0  0  0
    2.0070    3.7456    3.9577 H   0  0  0  0  0  0  0  0  0  0  0  0
    9.8961    0.7885    0.7684 H   0  0  0  0  0  0  0  0  0  0  0  0
    7.9253   -2.8792   -0.3870 H   0  0  0  0  0  0  0  0  0  0  0  0
   12.0611   -0.3007    0.5715 H   0  0  0  0  0  0  0  0  0  0  0  0
   10.1152   -3.9659   -0.5799 H   0  0  0  0  0  0  0  0  0  0  0  0
   13.7951   -1.4687   -0.5279 H   0  0  0  0  0  0  0  0  0  0  0  0
   13.6509   -1.9983    1.1953 H   0  0  0  0  0  0  0  0  0  0  0  0
   14.4235   -3.0360   -0.0055 H   0  0  0  0  0  0  0  0  0  0  0  0
  1  2  2  0  0  0  0
  1  3  1  0  0  0  0
  1  4  1  0  0  0  0
  2  5  1  0  0  0  0
  2  6  1  0  0  0  0
  3  7  1  0  0  0  0
  3  8  2  0  0  0  0
  4  9  2  0  0  0  0
  4 25  1  0  0  0  0
  5 10  2  0  0  0  0
  5 26  1  0  0  0  0
  6 11  1  0  0  0  0
  7 12  1  0  0  0  0
  7 27  1  0  0  0  0
  9 10  1  0  0  0  0
  9 28  1  0  0  0  0
 10 29  1  0  0  0  0
 11 30  1  0  0  0  0
 11 31  1  0  0  0  0
 11 32  1  0  0  0  0
 12 13  1  0  0  0  0
 12 14  2  0  0  0  0
 13 15  1  0  0  0  0
 14 16  1  0  0  0  0
 15 17  1  0  0  0  0
 15 16  2  0  0  0  0
 17 18  2  0  0  0  0
 17 19  1  0  0  0  0
 18 20  1  0  0  0  0
 18 33  1  0  0  0  0
 19 21  2  0  0  0  0
 19 34  1  0  0  0  0
 20 22  2  0  0  0  0
 20 35  1  0  0  0  0
 21 22  1  0  0  0  0
 21 36  1  0  0  0  0
 22 23  1  0  0  0  0
 23 24  1  0  0  0  0
 24 37  1  0  0  0  0
 24 38  1  0  0  0  0
 24 39  1  0  0  0  0
M  END
>  <Mol_ID>
8417

>  <Formula>
C17H15N3O3S

>  <MolWeight>
341.3843

>  <Cat>
P2150

>  <Name>
WAY-300613

>  <Synonyms>
N/A

>  <Target>
Anti-infection

>  <Form>
free base

>  <CAS>
328261-08-1

>  <URL>
N/A

$$$$
