WAY-329745
 OpenBabel08302521453D

 43 47  0  0  0  0  0  0  0  0999 V2000
    3.5679    0.2885   -0.2672 C   0  0  0  0  0  0  0  0  0  0  0  0
    1.2582   -0.5913   -0.0832 C   0  0  0  0  0  0  0  0  0  0  0  0
    2.8314   -1.2595   -0.1246 S   0  0  0  0  0  0  0  0  0  0  0  0
    0.1479   -1.3567   -0.0024 N   0  0  0  0  0  0  0  0  0  0  0  0
    5.0221    0.4328   -0.2602 C   0  0  0  0  0  0  0  0  0  0  0  0
    2.6104    1.2785   -0.3649 C   0  0  0  0  0  0  0  0  0  0  0  0
    1.2922    0.7935   -0.1448 C   0  0  0  0  0  0  0  0  0  0  0  0
   -1.0163   -0.6790    0.0124 C   0  0  0  0  0  0  0  0  0  0  0  0
    5.4266    1.6971    0.1554 N   0  0  0  0  0  0  0  0  0  0  0  0
    9.1242    1.8972    0.6018 C   0  0  0  0  0  0  0  0  0  0  0  0
    0.0777    1.4737   -0.0200 C   0  0  0  0  0  0  0  0  0  0  0  0
   -1.0917    0.7293    0.0520 C   0  0  0  0  0  0  0  0  0  0  0  0
    7.8788    1.3806    0.2583 C   0  0  0  0  0  0  0  0  0  0  0  0
    9.2522    3.2219    1.0315 C   0  0  0  0  0  0  0  0  0  0  0  0
    6.7327    2.1642    0.4030 C   0  0  0  0  0  0  0  0  0  0  0  0
    5.7824   -0.4784   -0.5661 O   0  0  0  0  0  0  0  0  0  0  0  0
   10.1872    1.0363    0.5029 O   0  0  0  0  0  0  0  0  0  0  0  0
   -2.2285   -1.3638   -0.0579 C   0  0  0  0  0  0  0  0  0  0  0  0
   10.4579    3.7974    1.3411 O   0  0  0  0  0  0  0  0  0  0  0  0
   -2.3153    1.4021    0.1066 C   0  0  0  0  0  0  0  0  0  0  0  0
    8.1195    4.0154    1.1734 C   0  0  0  0  0  0  0  0  0  0  0  0
    6.8632    3.4841    0.8656 C   0  0  0  0  0  0  0  0  0  0  0  0
   -3.4692   -0.6956   -0.1015 C   0  0  0  0  0  0  0  0  0  0  0  0
   -3.5021    0.6927    0.0195 C   0  0  0  0  0  0  0  0  0  0  0  0
   11.3208    1.5359    1.2201 C   0  0  0  0  0  0  0  0  0  0  0  0
   11.5491    2.9958    0.8677 C   0  0  0  0  0  0  0  0  0  0  0  0
   -4.7437   -1.4514   -0.3217 C   0  0  0  0  0  0  0  0  0  0  0  0
    2.8283    2.3215   -0.5493 H   0  0  0  0  0  0  0  0  0  0  0  0
    4.6984    2.3528    0.4014 H   0  0  0  0  0  0  0  0  0  0  0  0
    0.0604    2.5584   -0.0286 H   0  0  0  0  0  0  0  0  0  0  0  0
    7.8294    0.3576   -0.0964 H   0  0  0  0  0  0  0  0  0  0  0  0
   -2.2032   -2.4499   -0.1277 H   0  0  0  0  0  0  0  0  0  0  0  0
   -2.3494    2.4860    0.1746 H   0  0  0  0  0  0  0  0  0  0  0  0
    8.2141    5.0359    1.5290 H   0  0  0  0  0  0  0  0  0  0  0  0
    5.9908    4.1213    0.9962 H   0  0  0  0  0  0  0  0  0  0  0  0
   -4.4436    1.2350    0.0107 H   0  0  0  0  0  0  0  0  0  0  0  0
   12.1863    0.9303    0.9353 H   0  0  0  0  0  0  0  0  0  0  0  0
   11.1457    1.4014    2.2953 H   0  0  0  0  0  0  0  0  0  0  0  0
   11.6376    3.1360   -0.2168 H   0  0  0  0  0  0  0  0  0  0  0  0
   12.4650    3.3644    1.3391 H   0  0  0  0  0  0  0  0  0  0  0  0
   -4.6857   -2.0139   -1.2612 H   0  0  0  0  0  0  0  0  0  0  0  0
   -4.9370   -2.1378    0.5065 H   0  0  0  0  0  0  0  0  0  0  0  0
   -5.5987   -0.7710   -0.4067 H   0  0  0  0  0  0  0  0  0  0  0  0
  2  3  1  0  0  0  0
  2  7  2  0  0  0  0
  3  1  1  0  0  0  0
  4  2  1  0  0  0  0
  5  1  1  0  0  0  0
  6  1  2  0  0  0  0
  6 28  1  0  0  0  0
  7  6  1  0  0  0  0
  8  4  2  0  0  0  0
  8 12  1  0  0  0  0
  9  5  1  0  0  0  0
  9 29  1  0  0  0  0
 10 13  2  0  0  0  0
 10 14  1  0  0  0  0
 11  7  1  0  0  0  0
 11 30  1  0  0  0  0
 12 11  2  0  0  0  0
 13 15  1  0  0  0  0
 13 31  1  0  0  0  0
 14 21  2  0  0  0  0
 15  9  1  0  0  0  0
 16  5  2  0  0  0  0
 17 10  1  0  0  0  0
 18  8  1  0  0  0  0
 18 32  1  0  0  0  0
 19 14  1  0  0  0  0
 20 12  1  0  0  0  0
 20 33  1  0  0  0  0
 21 22  1  0  0  0  0
 21 34  1  0  0  0  0
 22 15  2  0  0  0  0
 22 35  1  0  0  0  0
 23 18  2  0  0  0  0
 23 24  1  0  0  0  0
 24 20  2  0  0  0  0
 24 36  1  0  0  0  0
 25 17  1  0  0  0  0
 25 26  1  0  0  0  0
 25 37  1  0  0  0  0
 25 38  1  0  0  0  0
 26 19  1  0  0  0  0
 26 39  1  0  0  0  0
 26 40  1  0  0  0  0
 27 23  1  0  0  0  0
 27 41  1  0  0  0  0
 27 42  1  0  0  0  0
 27 43  1  0  0  0  0
M  END
>  <Mol_ID>
9322

>  <Formula>
C21H16N2O3S

>  <MolWeight>
376.42834

>  <Cat>
P2596

>  <Name>
WAY-329745

>  <Synonyms>
N/A

>  <Target>
anti-infection

>  <Form>
free base

>  <CAS>
958587-50-3

>  <URL>
N/A

$$$$
