WAY-324671
 OpenBabel08302521423D

 50 54  0  0  0  0  0  0  0  0999 V2000
    0.2195   -0.8123    0.0876 C   0  0  0  0  0  0  0  0  0  0  0  0
    0.3304    0.5895    0.0831 N   0  0  0  0  0  0  0  0  0  0  0  0
   -0.7991    1.3960    0.0516 C   0  0  0  0  0  0  0  0  0  0  0  0
    1.5144   -1.3115    0.0114 C   0  0  0  0  0  0  0  0  0  0  0  0
   -1.0073   -1.4265    0.1313 N   0  0  0  0  0  0  0  0  0  0  0  0
    1.6258    0.9710    0.0654 N   0  0  0  0  0  0  0  0  0  0  0  0
   -2.0197    0.8257    0.0291 C   0  0  0  0  0  0  0  0  0  0  0  0
    1.9046   -2.7064   -0.1255 C   0  0  0  0  0  0  0  0  0  0  0  0
    3.0965   -3.1536    0.4558 N   0  0  0  0  0  0  0  0  0  0  0  0
   -2.0661   -0.6696    0.1070 C   0  0  0  0  0  0  0  0  0  0  0  0
   -0.6268    2.8654    0.0048 C   0  0  0  0  0  0  0  0  0  0  0  0
    2.3110   -0.1552   -0.0549 C   0  0  0  0  0  0  0  0  0  0  0  0
    5.9086   -3.6444    0.1556 N   0  0  3  0  0  0  0  0  0  0  0  0
    3.5953   -4.4867    0.0744 C   0  0  0  0  0  0  0  0  0  0  0  0
    4.8962   -4.2834   -0.7070 C   0  0  3  0  0  0  0  0  0  0  0  0
   -3.4258   -1.2918    0.1375 C   0  0  0  0  0  0  0  0  0  0  0  0
    4.0626   -2.4045    1.2862 C   0  0  0  0  0  0  0  0  0  0  0  0
    1.2137   -3.4712   -0.7984 O   0  0  0  0  0  0  0  0  0  0  0  0
    5.4620   -2.3209    0.6061 C   0  0  0  0  0  0  0  0  0  0  0  0
    0.6402    3.3392   -0.0013 F   0  0  0  0  0  0  0  0  0  0  0  0
   -1.2318    3.3856   -1.0995 F   0  0  0  0  0  0  0  0  0  0  0  0
   -1.2449    3.4497    1.0710 F   0  0  0  0  0  0  0  0  0  0  0  0
   -3.5957   -2.5768   -0.3996 C   0  0  0  0  0  0  0  0  0  0  0  0
   -4.5315   -0.6365    0.7020 C   0  0  0  0  0  0  0  0  0  0  0  0
   -5.9454   -2.5172    0.1622 C   0  0  0  0  0  0  0  0  0  0  0  0
   -4.8542   -3.1866   -0.3906 C   0  0  0  0  0  0  0  0  0  0  0  0
   -5.7903   -1.2458    0.7076 C   0  0  0  0  0  0  0  0  0  0  0  0
   -7.6459   -3.3424    0.1825 Br  0  0  0  0  0  0  0  0  0  0  0  0
    7.1459   -3.6749   -0.6128 C   0  0  0  0  0  0  0  0  0  0  0  0
    5.6407   -5.5267   -1.1473 C   0  0  0  0  0  0  0  0  0  0  0  0
    7.0711   -5.0162   -1.3525 C   0  0  0  0  0  0  0  0  0  0  0  0
   -2.9248    1.4105   -0.0578 H   0  0  0  0  0  0  0  0  0  0  0  0
    3.3805   -0.0781   -0.1951 H   0  0  0  0  0  0  0  0  0  0  0  0
    3.7687   -5.0523    0.9992 H   0  0  0  0  0  0  0  0  0  0  0  0
    2.8699   -5.0469   -0.5214 H   0  0  0  0  0  0  0  0  0  0  0  0
    4.6941   -3.6537   -1.5869 H   0  0  0  0  0  0  0  0  0  0  0  0
    3.7056   -1.4106    1.5517 H   0  0  0  0  0  0  0  0  0  0  0  0
    4.1539   -2.9532    2.2315 H   0  0  0  0  0  0  0  0  0  0  0  0
    5.4121   -1.6256   -0.2410 H   0  0  0  0  0  0  0  0  0  0  0  0
    6.1815   -1.9168    1.3271 H   0  0  0  0  0  0  0  0  0  0  0  0
   -2.7478   -3.1084   -0.8300 H   0  0  0  0  0  0  0  0  0  0  0  0
   -4.4376    0.3398    1.1679 H   0  0  0  0  0  0  0  0  0  0  0  0
   -4.9691   -4.1830   -0.8122 H   0  0  0  0  0  0  0  0  0  0  0  0
   -6.6367   -0.7253    1.1485 H   0  0  0  0  0  0  0  0  0  0  0  0
    7.2014   -2.8555   -1.3398 H   0  0  0  0  0  0  0  0  0  0  0  0
    8.0259   -3.6246    0.0357 H   0  0  0  0  0  0  0  0  0  0  0  0
    5.2290   -5.9551   -2.0672 H   0  0  0  0  0  0  0  0  0  0  0  0
    5.6264   -6.3036   -0.3738 H   0  0  0  0  0  0  0  0  0  0  0  0
    7.2801   -4.8716   -2.4187 H   0  0  0  0  0  0  0  0  0  0  0  0
    7.7958   -5.7380   -0.9613 H   0  0  0  0  0  0  0  0  0  0  0  0
  2  1  1  0  0  0  0
  3  2  1  0  0  0  0
  3  7  2  0  0  0  0
  4  1  2  0  0  0  0
  5  1  1  0  0  0  0
  6  2  1  0  0  0  0
  6 12  2  0  0  0  0
  7 10  1  0  0  0  0
  7 32  1  0  0  0  0
  8  4  1  0  0  0  0
  9  8  1  0  0  0  0
 10  5  2  0  0  0  0
 11  3  1  0  0  0  0
 12  4  1  0  0  0  0
 12 33  1  0  0  0  0
 13 19  1  0  0  0  0
 14  9  1  0  0  0  0
 14 34  1  0  0  0  0
 14 35  1  0  0  0  0
 15 14  1  0  0  0  0
 15 13  1  0  0  0  0
 15 36  1  0  0  0  0
 16 10  1  0  0  0  0
 17  9  1  0  0  0  0
 17 37  1  0  0  0  0
 17 38  1  0  0  0  0
 18  8  2  0  0  0  0
 19 17  1  0  0  0  0
 19 39  1  0  0  0  0
 19 40  1  0  0  0  0
 20 11  1  0  0  0  0
 21 11  1  0  0  0  0
 22 11  1  0  0  0  0
 23 16  2  0  0  0  0
 23 41  1  0  0  0  0
 24 16  1  0  0  0  0
 24 42  1  0  0  0  0
 25 27  1  0  0  0  0
 26 23  1  0  0  0  0
 26 25  2  0  0  0  0
 26 43  1  0  0  0  0
 27 24  2  0  0  0  0
 27 44  1  0  0  0  0
 28 25  1  0  0  0  0
 29 13  1  0  0  0  0
 29 45  1  0  0  0  0
 29 46  1  0  0  0  0
 30 15  1  0  0  0  0
 30 47  1  0  0  0  0
 30 48  1  0  0  0  0
 31 30  1  0  0  0  0
 31 29  1  0  0  0  0
 31 49  1  0  0  0  0
 31 50  1  0  0  0  0
M  END
>  <Mol_ID>
8649

>  <Formula>
C21H19BrF3N5O

>  <MolWeight>
494.3076696

>  <Cat>
P2339

>  <Name>
WAY-324671

>  <Synonyms>
N/A

>  <Target>
11¦Â-HSD1

>  <Form>
free base

>  <CAS>
353775-44-7

>  <URL>
N/A

$$$$
