WAY-332076
 OpenBabel08302521443D

 46 48  0  0  0  0  0  0  0  0999 V2000
    0.0827   -1.0098   -0.4620 C   0  0  0  0  0  0  0  0  0  0  0  0
   -0.3424    0.1897   -0.1016 N   0  0  0  0  0  0  0  0  0  0  0  0
    0.5839    1.0658   -0.6416 C   0  0  0  0  0  0  0  0  0  0  0  0
    1.2375   -0.9839   -1.2006 O   0  0  0  0  0  0  0  0  0  0  0  0
   -0.4955   -2.3308   -0.1949 C   0  0  0  0  0  0  0  0  0  0  0  0
    1.5459    0.3423   -1.3134 C   0  0  0  0  0  0  0  0  0  0  0  0
   -0.4329    3.3805   -1.7315 S   0  0  3  0  0  0  0  0  0  0  0  0
    0.4990    2.5396   -0.4081 C   0  0  0  0  0  0  0  0  0  0  0  0
   -0.1937    5.1214   -1.2109 C   0  0  0  0  0  0  0  0  0  0  0  0
   -0.8343    5.4795    0.1119 C   0  0  0  0  0  0  0  0  0  0  0  0
   -1.7417   -2.4299    0.4472 C   0  0  0  0  0  0  0  0  0  0  0  0
   -1.2155    6.7638    0.3716 N   0  0  0  0  0  0  0  0  0  0  0  0
    0.3396    3.2218   -3.0109 O   0  0  0  0  0  0  0  0  0  0  0  0
   -1.0131    4.6614    1.0130 O   0  0  0  0  0  0  0  0  0  0  0  0
   -0.9625    7.9949   -0.3535 C   0  0  0  0  0  0  0  0  0  0  0  0
    2.4991    9.8531    1.3953 C   0  0  0  0  0  0  0  0  0  0  0  0
    0.2384    8.7055    0.2201 C   0  0  0  0  0  0  0  0  0  0  0  0
    3.5878   10.3738    1.9762 F   0  0  0  0  0  0  0  0  0  0  0  0
    0.1498   -3.5185   -0.5704 C   0  0  0  0  0  0  0  0  0  0  0  0
    2.6409    9.0636    0.2609 C   0  0  0  0  0  0  0  0  0  0  0  0
    1.2456   10.1021    1.9396 C   0  0  0  0  0  0  0  0  0  0  0  0
    1.5118    8.4935   -0.3294 C   0  0  0  0  0  0  0  0  0  0  0  0
    0.1141    9.5288    1.3542 C   0  0  0  0  0  0  0  0  0  0  0  0
    2.7636    0.6775   -2.0690 C   0  0  0  0  0  0  0  0  0  0  0  0
   -2.3254   -3.6790    0.6947 C   0  0  0  0  0  0  0  0  0  0  0  0
   -0.4319   -4.7676   -0.3214 C   0  0  0  0  0  0  0  0  0  0  0  0
   -1.6725   -4.8478    0.3035 C   0  0  0  0  0  0  0  0  0  0  0  0
    0.0016    2.6939    0.5484 H   0  0  0  0  0  0  0  0  0  0  0  0
    1.5000    2.9789   -0.3564 H   0  0  0  0  0  0  0  0  0  0  0  0
    0.8774    5.3381   -1.1791 H   0  0  0  0  0  0  0  0  0  0  0  0
   -0.6505    5.7143   -2.0086 H   0  0  0  0  0  0  0  0  0  0  0  0
   -2.2668   -1.5278    0.7557 H   0  0  0  0  0  0  0  0  0  0  0  0
   -1.5589    6.8665    1.3199 H   0  0  0  0  0  0  0  0  0  0  0  0
   -0.8324    7.8042   -1.4219 H   0  0  0  0  0  0  0  0  0  0  0  0
   -1.8538    8.6230   -0.2388 H   0  0  0  0  0  0  0  0  0  0  0  0
    1.1207   -3.4849   -1.0612 H   0  0  0  0  0  0  0  0  0  0  0  0
    3.6299    8.8872   -0.1492 H   0  0  0  0  0  0  0  0  0  0  0  0
    1.1611   10.7283    2.8229 H   0  0  0  0  0  0  0  0  0  0  0  0
    1.6350    7.8736   -1.2141 H   0  0  0  0  0  0  0  0  0  0  0  0
   -0.8611    9.7195    1.7984 H   0  0  0  0  0  0  0  0  0  0  0  0
    3.6144    0.0929   -1.7048 H   0  0  0  0  0  0  0  0  0  0  0  0
    2.6243    0.4594   -3.1317 H   0  0  0  0  0  0  0  0  0  0  0  0
    3.0139    1.7369   -1.9666 H   0  0  0  0  0  0  0  0  0  0  0  0
   -3.2925   -3.7343    1.1877 H   0  0  0  0  0  0  0  0  0  0  0  0
    0.0838   -5.6762   -0.6224 H   0  0  0  0  0  0  0  0  0  0  0  0
   -2.1280   -5.8157    0.4951 H   0  0  0  0  0  0  0  0  0  0  0  0
  2  1  2  0  0  0  0
  3  2  1  0  0  0  0
  4  1  1  0  0  0  0
  5  1  1  0  0  0  0
  6  4  1  0  0  0  0
  6  3  2  0  0  0  0
  7  8  1  0  0  0  0
  8  3  1  0  0  0  0
  8 28  1  0  0  0  0
  8 29  1  0  0  0  0
  9  7  1  0  0  0  0
  9 30  1  0  0  0  0
  9 31  1  0  0  0  0
 10  9  1  0  0  0  0
 11  5  2  0  0  0  0
 11 32  1  0  0  0  0
 12 10  1  0  0  0  0
 12 33  1  0  0  0  0
 13  7  2  0  0  0  0
 14 10  2  0  0  0  0
 15 12  1  0  0  0  0
 15 34  1  0  0  0  0
 15 35  1  0  0  0  0
 16 21  2  0  0  0  0
 17 15  1  0  0  0  0
 18 16  1  0  0  0  0
 19  5  1  0  0  0  0
 19 36  1  0  0  0  0
 20 22  2  0  0  0  0
 20 16  1  0  0  0  0
 20 37  1  0  0  0  0
 21 23  1  0  0  0  0
 21 38  1  0  0  0  0
 22 17  1  0  0  0  0
 22 39  1  0  0  0  0
 23 17  2  0  0  0  0
 23 40  1  0  0  0  0
 24  6  1  0  0  0  0
 24 41  1  0  0  0  0
 24 42  1  0  0  0  0
 24 43  1  0  0  0  0
 25 11  1  0  0  0  0
 25 44  1  0  0  0  0
 26 19  2  0  0  0  0
 26 45  1  0  0  0  0
 27 26  1  0  0  0  0
 27 25  2  0  0  0  0
 27 46  1  0  0  0  0
M  END
>  <Mol_ID>
9234

>  <Formula>
C20H18ClFN2O3S

>  <MolWeight>
420.8849232

>  <Cat>
P2717

>  <Name>
WAY-332076

>  <Synonyms>
N/A

>  <Target>
beta-catenin

>  <Form>
free base

>  <CAS>
1015865-34-5

>  <URL>
N/A

$$$$
