WAY-331998
 OpenBabel08302521443D

 51 53  0  0  0  0  0  0  0  0999 V2000
    0.6121    0.3211   -0.4996 N   0  0  0  0  0  0  0  0  0  0  0  0
   -0.1585   -0.7362   -0.6861 C   0  0  0  0  0  0  0  0  0  0  0  0
   -0.2252    1.2575    0.0843 C   0  0  0  0  0  0  0  0  0  0  0  0
   -1.4487   -0.5653   -0.2516 O   0  0  0  0  0  0  0  0  0  0  0  0
   -1.4805    0.7063    0.2431 C   0  0  0  0  0  0  0  0  0  0  0  0
    0.1685   -2.0336   -1.2748 C   0  0  0  0  0  0  0  0  0  0  0  0
    0.7647    4.1115   -3.4426 C   0  0  0  0  0  0  0  0  0  0  0  0
    1.0066    3.3818   -4.5964 N   0  0  0  0  0  0  0  0  0  0  0  0
    1.4955   -2.3418   -1.6102 C   0  0  0  0  0  0  0  0  0  0  0  0
    0.4901    5.3064   -3.4612 O   0  0  0  0  0  0  0  0  0  0  0  0
   -0.1829    3.8475   -0.8325 S   0  0  0  0  0  0  0  0  0  0  0  0
    0.2543    2.6180    0.4404 C   0  0  0  0  0  0  0  0  0  0  0  0
    0.6459    3.8790   -5.9133 C   0  0  0  0  0  0  0  0  0  0  0  0
   -0.6641    3.2568   -6.3349 C   0  0  0  0  0  0  0  0  0  0  0  0
    1.8381   -3.5821   -2.1696 C   0  0  0  0  0  0  0  0  0  0  0  0
   -3.0343    1.8117   -6.7995 C   0  0  0  0  0  0  0  0  0  0  0  0
   -1.8318    3.5488   -5.6163 C   0  0  0  0  0  0  0  0  0  0  0  0
   -0.7261    2.3122   -7.3675 C   0  0  0  0  0  0  0  0  0  0  0  0
   -3.0034    2.8274   -5.8403 C   0  0  0  0  0  0  0  0  0  0  0  0
   -1.9072    1.6009   -7.6030 C   0  0  0  0  0  0  0  0  0  0  0  0
    0.9123    3.2742   -2.1713 C   0  0  0  0  0  0  0  0  0  0  0  0
   -2.7665    1.1842    0.7769 C   0  0  0  0  0  0  0  0  0  0  0  0
   -0.8223   -2.9965   -1.5247 C   0  0  0  0  0  0  0  0  0  0  0  0
   -0.4951   -4.2290   -2.0990 C   0  0  0  0  0  0  0  0  0  0  0  0
    0.8296   -4.5186   -2.4213 C   0  0  0  0  0  0  0  0  0  0  0  0
    3.2619   -3.9088   -2.5114 C   0  0  0  0  0  0  0  0  0  0  0  0
   -4.2500    0.9469   -6.9511 C   0  0  0  0  0  0  0  0  0  0  0  0
    1.0969    2.3779   -4.5156 H   0  0  0  0  0  0  0  0  0  0  0  0
    2.2727   -1.6030   -1.4204 H   0  0  0  0  0  0  0  0  0  0  0  0
   -0.2047    2.9345    1.3837 H   0  0  0  0  0  0  0  0  0  0  0  0
    1.3380    2.6235    0.5996 H   0  0  0  0  0  0  0  0  0  0  0  0
    1.4514    3.5787   -6.5921 H   0  0  0  0  0  0  0  0  0  0  0  0
    0.5772    4.9711   -5.9241 H   0  0  0  0  0  0  0  0  0  0  0  0
   -1.8167    4.3099   -4.8373 H   0  0  0  0  0  0  0  0  0  0  0  0
    0.1505    2.0933   -7.9731 H   0  0  0  0  0  0  0  0  0  0  0  0
   -3.8774    3.0396   -5.2293 H   0  0  0  0  0  0  0  0  0  0  0  0
   -1.9307    0.8506   -8.3905 H   0  0  0  0  0  0  0  0  0  0  0  0
    1.9553    3.3236   -1.8474 H   0  0  0  0  0  0  0  0  0  0  0  0
    0.6519    2.2388   -2.4059 H   0  0  0  0  0  0  0  0  0  0  0  0
   -3.4442    1.4402   -0.0424 H   0  0  0  0  0  0  0  0  0  0  0  0
   -3.2429    0.4140    1.3915 H   0  0  0  0  0  0  0  0  0  0  0  0
   -2.6312    2.0740    1.3997 H   0  0  0  0  0  0  0  0  0  0  0  0
   -1.8647   -2.7971   -1.2826 H   0  0  0  0  0  0  0  0  0  0  0  0
   -1.2740   -4.9637   -2.2917 H   0  0  0  0  0  0  0  0  0  0  0  0
    1.0734   -5.4824   -2.8650 H   0  0  0  0  0  0  0  0  0  0  0  0
    3.5553   -4.8524   -2.0392 H   0  0  0  0  0  0  0  0  0  0  0  0
    3.3808   -3.9983   -3.5959 H   0  0  0  0  0  0  0  0  0  0  0  0
    3.9481   -3.1334   -2.1568 H   0  0  0  0  0  0  0  0  0  0  0  0
   -4.7970    1.2001   -7.8628 H   0  0  0  0  0  0  0  0  0  0  0  0
   -3.9563   -0.1083   -6.9835 H   0  0  0  0  0  0  0  0  0  0  0  0
   -4.9239    1.0625   -6.0948 H   0  0  0  0  0  0  0  0  0  0  0  0
  2  1  2  0  0  0  0
  3  1  1  0  0  0  0
  4  2  1  0  0  0  0
  4  5  1  0  0  0  0
  5  3  2  0  0  0  0
  6  2  1  0  0  0  0
  7 21  1  0  0  0  0
  8  7  1  0  0  0  0
  8 28  1  0  0  0  0
  9  6  2  0  0  0  0
  9 29  1  0  0  0  0
 10  7  2  0  0  0  0
 11 12  1  0  0  0  0
 12  3  1  0  0  0  0
 12 30  1  0  0  0  0
 12 31  1  0  0  0  0
 13  8  1  0  0  0  0
 13 32  1  0  0  0  0
 13 33  1  0  0  0  0
 14 13  1  0  0  0  0
 15  9  1  0  0  0  0
 16 20  2  0  0  0  0
 17 14  1  0  0  0  0
 17 34  1  0  0  0  0
 18 14  2  0  0  0  0
 18 35  1  0  0  0  0
 19 17  2  0  0  0  0
 19 16  1  0  0  0  0
 19 36  1  0  0  0  0
 20 18  1  0  0  0  0
 20 37  1  0  0  0  0
 21 11  1  0  0  0  0
 21 38  1  0  0  0  0
 21 39  1  0  0  0  0
 22  5  1  0  0  0  0
 22 40  1  0  0  0  0
 22 41  1  0  0  0  0
 22 42  1  0  0  0  0
 23  6  1  0  0  0  0
 23 43  1  0  0  0  0
 24 23  2  0  0  0  0
 24 44  1  0  0  0  0
 25 24  1  0  0  0  0
 25 15  2  0  0  0  0
 25 45  1  0  0  0  0
 26 15  1  0  0  0  0
 26 46  1  0  0  0  0
 26 47  1  0  0  0  0
 26 48  1  0  0  0  0
 27 16  1  0  0  0  0
 27 49  1  0  0  0  0
 27 50  1  0  0  0  0
 27 51  1  0  0  0  0
M  END
>  <Mol_ID>
9205

>  <Formula>
C22H24N2O2S

>  <MolWeight>
380.50316

>  <Cat>
P2656

>  <Name>
WAY-331998

>  <Synonyms>
N/A

>  <Target>
beta-catenin

>  <Form>
free base

>  <CAS>
901722-52-9

>  <URL>
N/A

$$$$
