WAY-658650
 OpenBabel08302521433D

 33 35  0  0  0  0  0  0  0  0999 V2000
    0.2701   -1.1692   -0.1574 C   0  0  0  0  0  0  0  0  0  0  0  0
    1.3439   -0.4950    0.1502 N   0  0  0  0  0  0  0  0  0  0  0  0
    1.0666    0.8646    0.1505 C   0  0  0  0  0  0  0  0  0  0  0  0
    0.3731   -9.0085    0.7183 N   0  3  0  0  0  0  0  0  0  0  0  0
    0.1021   -2.5286   -0.1846 N   0  0  0  0  0  0  0  0  0  0  0  0
    1.1868   -3.3718   -0.0876 C   0  0  0  0  0  0  0  0  0  0  0  0
   -1.1246   -0.2537   -0.5094 S   0  0  0  0  0  0  0  0  0  0  0  0
   -0.2221    1.1872   -0.2355 C   0  0  0  0  0  0  0  0  0  0  0  0
    0.5232   -7.5687    0.4577 C   0  0  0  0  0  0  0  0  0  0  0  0
    2.0605    1.8385    0.5966 C   0  0  0  0  0  0  0  0  0  0  0  0
   -0.5743   -9.3637    1.4351 O   0  5  0  0  0  0  0  0  0  0  0  0
    0.8740   -4.8227    0.0532 C   0  0  0  0  0  0  0  0  0  0  0  0
    1.1984   -9.7763    0.2093 O   0  0  0  0  0  0  0  0  0  0  0  0
    1.6874    3.1441    0.6352 N   0  0  0  0  0  0  0  0  0  0  0  0
    2.3702   -3.0595   -0.1345 O   0  0  0  0  0  0  0  0  0  0  0  0
   -0.3915   -6.6582    1.0105 C   0  0  0  0  0  0  0  0  0  0  0  0
    1.6000   -7.1164   -0.3119 C   0  0  0  0  0  0  0  0  0  0  0  0
    1.7734   -5.7437   -0.5071 C   0  0  0  0  0  0  0  0  0  0  0  0
   -0.2142   -5.2824    0.8078 C   0  0  0  0  0  0  0  0  0  0  0  0
    2.5826    4.0196    1.1469 C   0  0  0  0  0  0  0  0  0  0  0  0
    3.3063    1.3985    1.0407 C   0  0  0  0  0  0  0  0  0  0  0  0
    3.8323    3.6617    1.6286 C   0  0  0  0  0  0  0  0  0  0  0  0
    4.2007    2.3245    1.5684 C   0  0  0  0  0  0  0  0  0  0  0  0
   -0.8344   -2.8714   -0.3294 H   0  0  0  0  0  0  0  0  0  0  0  0
   -0.6722    2.1662   -0.3228 H   0  0  0  0  0  0  0  0  0  0  0  0
   -1.2247   -7.0008    1.6220 H   0  0  0  0  0  0  0  0  0  0  0  0
    2.3225   -7.8071   -0.7433 H   0  0  0  0  0  0  0  0  0  0  0  0
    2.6307   -5.3881   -1.0780 H   0  0  0  0  0  0  0  0  0  0  0  0
   -0.8966   -4.5892    1.2920 H   0  0  0  0  0  0  0  0  0  0  0  0
    2.2550    5.0552    1.1716 H   0  0  0  0  0  0  0  0  0  0  0  0
    3.5686    0.3443    0.9998 H   0  0  0  0  0  0  0  0  0  0  0  0
    4.5016    4.4062    2.0450 H   0  0  0  0  0  0  0  0  0  0  0  0
    5.1677    1.9971    1.9393 H   0  0  0  0  0  0  0  0  0  0  0  0
  2  1  2  0  0  0  0
  3  2  1  0  0  0  0
  4  9  1  0  0  0  0
  5  1  1  0  0  0  0
  5 24  1  0  0  0  0
  6  5  1  0  0  0  0
  7  1  1  0  0  0  0
  8  7  1  0  0  0  0
  8  3  2  0  0  0  0
  8 25  1  0  0  0  0
  9 16  2  0  0  0  0
  9 17  1  0  0  0  0
 10  3  1  0  0  0  0
 11  4  1  0  0  0  0
 12  6  1  0  0  0  0
 13  4  2  0  0  0  0
 14 10  2  0  0  0  0
 15  6  2  0  0  0  0
 16 19  1  0  0  0  0
 16 26  1  0  0  0  0
 17 18  2  0  0  0  0
 17 27  1  0  0  0  0
 18 12  1  0  0  0  0
 18 28  1  0  0  0  0
 19 12  2  0  0  0  0
 19 29  1  0  0  0  0
 20 14  1  0  0  0  0
 20 30  1  0  0  0  0
 21 10  1  0  0  0  0
 21 31  1  0  0  0  0
 22 23  1  0  0  0  0
 22 20  2  0  0  0  0
 22 32  1  0  0  0  0
 23 21  2  0  0  0  0
 23 33  1  0  0  0  0
M  CHG  2   4   1  11  -1
M  END
>  <Mol_ID>
8826

>  <Formula>
C15H10N4O3S

>  <MolWeight>
326.3299

>  <Cat>
P3172

>  <Name>
WAY-658650

>  <Synonyms>
N/A

>  <Target>
Anti-infection

>  <Form>
free base

>  <CAS>
476319-66-1

>  <URL>
N/A

$$$$
