WAY-325434
 OpenBabel08302521433D

 49 51  0  0  0  0  0  0  0  0999 V2000
   -0.0691    1.1033   -0.5157 C   0  0  0  0  0  0  0  0  0  0  0  0
   -0.6815    2.4080   -0.7051 C   0  0  0  0  0  0  0  0  0  0  0  0
    0.3746    5.9103   -0.9077 C   0  0  0  0  0  0  0  0  0  0  0  0
    0.1496    3.4434   -1.1343 N   0  0  0  0  0  0  0  0  0  0  0  0
   -0.9168    0.0383   -0.3217 O   0  0  0  0  0  0  0  0  0  0  0  0
   -0.3470    4.7691   -1.3240 C   0  0  0  0  0  0  0  0  0  0  0  0
    1.7770    5.8063   -0.4067 C   0  0  0  0  0  0  0  0  0  0  0  0
    1.2337    0.6385   -0.4904 C   0  0  0  0  0  0  0  0  0  0  0  0
   -0.1665   -1.0901   -0.1796 C   0  0  0  0  0  0  0  0  0  0  0  0
    1.1701   -0.7619   -0.2626 C   0  0  0  0  0  0  0  0  0  0  0  0
   -2.3154   -6.2122    1.0022 C   0  0  0  0  0  0  0  0  0  0  0  0
   -1.8796    2.5824   -0.4587 O   0  0  0  0  0  0  0  0  0  0  0  0
   -2.2333   -6.6006    2.3521 C   0  0  0  0  0  0  0  0  0  0  0  0
    2.4375    4.7784   -0.4250 O   0  0  0  0  0  0  0  0  0  0  0  0
   -1.9654   -4.8966    0.6377 C   0  0  0  0  0  0  0  0  0  0  0  0
   -1.8949   -5.6317    3.3111 C   0  0  0  0  0  0  0  0  0  0  0  0
   -1.5487   -3.9610    1.5880 C   0  0  0  0  0  0  0  0  0  0  0  0
   -1.1066   -2.6872    1.3147 O   0  0  0  0  0  0  0  0  0  0  0  0
   -0.9006   -2.3842   -0.0655 C   0  0  0  0  0  0  0  0  0  0  0  0
    2.1966    7.0237    0.0206 O   0  0  0  0  0  0  0  0  0  0  0  0
   -1.5567   -4.3269    2.9325 C   0  0  0  0  0  0  0  0  0  0  0  0
   -0.2641    7.1671   -0.9399 C   0  0  0  0  0  0  0  0  0  0  0  0
   -1.6156    4.9514   -1.9057 C   0  0  0  0  0  0  0  0  0  0  0  0
   -2.7199   -7.1763   -0.0868 C   0  0  0  0  0  0  0  0  0  0  0  0
   -2.4867   -8.0075    2.8163 C   0  0  0  0  0  0  0  0  0  0  0  0
    3.5592    7.1227    0.4340 C   0  0  0  0  0  0  0  0  0  0  0  0
   -1.5501    7.3140   -1.4555 C   0  0  0  0  0  0  0  0  0  0  0  0
   -2.2104    6.2113   -1.9755 C   0  0  0  0  0  0  0  0  0  0  0  0
    1.1473    3.3495   -0.9757 H   0  0  0  0  0  0  0  0  0  0  0  0
    2.1298    1.2311   -0.6144 H   0  0  0  0  0  0  0  0  0  0  0  0
    1.9956   -1.4572   -0.1961 H   0  0  0  0  0  0  0  0  0  0  0  0
   -2.0244   -4.6315   -0.4132 H   0  0  0  0  0  0  0  0  0  0  0  0
   -1.8694   -5.8974    4.3633 H   0  0  0  0  0  0  0  0  0  0  0  0
   -1.8663   -2.3103   -0.5812 H   0  0  0  0  0  0  0  0  0  0  0  0
   -0.2855   -3.1589   -0.5421 H   0  0  0  0  0  0  0  0  0  0  0  0
   -1.2776   -3.6047    3.6930 H   0  0  0  0  0  0  0  0  0  0  0  0
    0.2282    8.0545   -0.5507 H   0  0  0  0  0  0  0  0  0  0  0  0
   -2.1649    4.1044   -2.3090 H   0  0  0  0  0  0  0  0  0  0  0  0
   -1.9371   -7.9142   -0.2432 H   0  0  0  0  0  0  0  0  0  0  0  0
   -3.6591   -7.6789    0.1810 H   0  0  0  0  0  0  0  0  0  0  0  0
   -2.8981   -6.6571   -1.0304 H   0  0  0  0  0  0  0  0  0  0  0  0
   -1.6403   -8.3541    3.4230 H   0  0  0  0  0  0  0  0  0  0  0  0
   -3.3981   -8.0567    3.4153 H   0  0  0  0  0  0  0  0  0  0  0  0
   -2.5849   -8.7175    1.9881 H   0  0  0  0  0  0  0  0  0  0  0  0
    3.7148    6.5733    1.3657 H   0  0  0  0  0  0  0  0  0  0  0  0
    4.2321    6.7698   -0.3526 H   0  0  0  0  0  0  0  0  0  0  0  0
    3.7721    8.1818    0.6163 H   0  0  0  0  0  0  0  0  0  0  0  0
   -2.0303    8.2891   -1.4558 H   0  0  0  0  0  0  0  0  0  0  0  0
   -3.2000    6.3175   -2.4103 H   0  0  0  0  0  0  0  0  0  0  0  0
  2  1  1  0  0  0  0
  3  6  2  0  0  0  0
  4  2  1  0  0  0  0
  4 29  1  0  0  0  0
  5  1  1  0  0  0  0
  6  4  1  0  0  0  0
  7  3  1  0  0  0  0
  8  1  2  0  0  0  0
  8 30  1  0  0  0  0
  9  5  1  0  0  0  0
 10  8  1  0  0  0  0
 10  9  2  0  0  0  0
 10 31  1  0  0  0  0
 11 15  2  0  0  0  0
 11 13  1  0  0  0  0
 12  2  2  0  0  0  0
 13 16  2  0  0  0  0
 14  7  2  0  0  0  0
 15 17  1  0  0  0  0
 15 32  1  0  0  0  0
 16 21  1  0  0  0  0
 16 33  1  0  0  0  0
 17 18  1  0  0  0  0
 18 19  1  0  0  0  0
 19  9  1  0  0  0  0
 19 34  1  0  0  0  0
 19 35  1  0  0  0  0
 20  7  1  0  0  0  0
 21 17  2  0  0  0  0
 21 36  1  0  0  0  0
 22  3  1  0  0  0  0
 22 27  2  0  0  0  0
 22 37  1  0  0  0  0
 23  6  1  0  0  0  0
 23 38  1  0  0  0  0
 24 11  1  0  0  0  0
 24 39  1  0  0  0  0
 24 40  1  0  0  0  0
 24 41  1  0  0  0  0
 25 13  1  0  0  0  0
 25 42  1  0  0  0  0
 25 43  1  0  0  0  0
 25 44  1  0  0  0  0
 26 20  1  0  0  0  0
 26 45  1  0  0  0  0
 26 46  1  0  0  0  0
 26 47  1  0  0  0  0
 27 28  1  0  0  0  0
 27 48  1  0  0  0  0
 28 23  2  0  0  0  0
 28 49  1  0  0  0  0
M  END
>  <Mol_ID>
8693

>  <Formula>
C22H21NO5

>  <MolWeight>
379.40584

>  <Cat>
P2392

>  <Name>
WAY-325434

>  <Synonyms>
N/A

>  <Target>
Others

>  <Form>
free base

>  <CAS>
445239-26-9

>  <URL>
N/A

$$$$
