WAY-310301
 OpenBabel08302521393D

 37 39  0  0  0  0  0  0  0  0999 V2000
   -0.2388   -1.0316    0.0358 C   0  0  0  0  0  0  0  0  0  0  0  0
   -0.7432   -2.3949   -0.0856 C   0  0  0  0  0  0  0  0  0  0  0  0
   -1.1288    0.0111   -0.0774 O   0  0  0  0  0  0  0  0  0  0  0  0
    0.9996   -0.6197    0.2133 N   0  0  0  0  0  0  0  0  0  0  0  0
   -2.1041   -2.6889   -0.2455 C   0  0  0  0  0  0  0  0  0  0  0  0
    0.1650   -3.4642   -0.0548 C   0  0  0  0  0  0  0  0  0  0  0  0
   -0.3000    1.1001    0.0484 C   0  0  0  0  0  0  0  0  0  0  0  0
    0.9584    0.7547    0.2202 N   0  0  0  0  0  0  0  0  0  0  0  0
   -2.5431   -4.0159   -0.3855 C   0  0  0  0  0  0  0  0  0  0  0  0
   -0.2740   -4.7843   -0.1924 C   0  0  0  0  0  0  0  0  0  0  0  0
   -0.8067    2.7568   -0.0512 S   0  0  0  0  0  0  0  0  0  0  0  0
   -1.6283   -5.0675   -0.3640 C   0  0  0  0  0  0  0  0  0  0  0  0
   -2.5990    2.5967   -0.1900 C   0  0  0  0  0  0  0  0  0  0  0  0
   -1.9183   -6.3974   -0.4926 O   0  0  0  0  0  0  0  0  0  0  0  0
   -3.2125    3.9816   -0.2870 C   0  0  0  0  0  0  0  0  0  0  0  0
   -3.2774   -6.7450   -0.7234 C   0  0  0  0  0  0  0  0  0  0  0  0
   -3.3394    4.6599   -1.6181 C   0  0  0  0  0  0  0  0  0  0  0  0
   -3.6089    4.5648    0.7234 O   0  0  0  0  0  0  0  0  0  0  0  0
   -2.9202    4.0699   -2.8170 C   0  0  0  0  0  0  0  0  0  0  0  0
   -3.9052    5.9449   -1.6552 C   0  0  0  0  0  0  0  0  0  0  0  0
   -3.0769    4.7480   -4.0296 C   0  0  0  0  0  0  0  0  0  0  0  0
   -4.0553    6.6211   -2.8693 C   0  0  0  0  0  0  0  0  0  0  0  0
   -3.6441    6.0212   -4.0554 C   0  0  0  0  0  0  0  0  0  0  0  0
   -2.8434   -1.8913   -0.2640 H   0  0  0  0  0  0  0  0  0  0  0  0
    1.2309   -3.2777    0.0725 H   0  0  0  0  0  0  0  0  0  0  0  0
   -3.6073   -4.1907   -0.5095 H   0  0  0  0  0  0  0  0  0  0  0  0
    0.4495   -5.5967   -0.1699 H   0  0  0  0  0  0  0  0  0  0  0  0
   -2.8938    1.9764   -1.0398 H   0  0  0  0  0  0  0  0  0  0  0  0
   -3.0025    2.1129    0.7066 H   0  0  0  0  0  0  0  0  0  0  0  0
   -3.9145   -6.4264    0.1077 H   0  0  0  0  0  0  0  0  0  0  0  0
   -3.6315   -6.3346   -1.6748 H   0  0  0  0  0  0  0  0  0  0  0  0
   -3.3364   -7.8359   -0.7872 H   0  0  0  0  0  0  0  0  0  0  0  0
   -2.4610    3.0874   -2.8487 H   0  0  0  0  0  0  0  0  0  0  0  0
   -4.2297    6.4305   -0.7370 H   0  0  0  0  0  0  0  0  0  0  0  0
   -2.7505    4.2844   -4.9579 H   0  0  0  0  0  0  0  0  0  0  0  0
   -4.4926    7.6178   -2.8845 H   0  0  0  0  0  0  0  0  0  0  0  0
   -3.7611    6.5466   -5.0005 H   0  0  0  0  0  0  0  0  0  0  0  0
  1  2  1  0  0  0  0
  1  3  1  0  0  0  0
  1  4  2  0  0  0  0
  2  5  2  0  0  0  0
  2  6  1  0  0  0  0
  3  7  1  0  0  0  0
  4  8  1  0  0  0  0
  5  9  1  0  0  0  0
  5 24  1  0  0  0  0
  6 10  2  0  0  0  0
  6 25  1  0  0  0  0
  7 11  1  0  0  0  0
  7  8  2  0  0  0  0
  9 12  2  0  0  0  0
  9 26  1  0  0  0  0
 10 12  1  0  0  0  0
 10 27  1  0  0  0  0
 11 13  1  0  0  0  0
 12 14  1  0  0  0  0
 13 15  1  0  0  0  0
 13 28  1  0  0  0  0
 13 29  1  0  0  0  0
 14 16  1  0  0  0  0
 15 17  1  0  0  0  0
 15 18  2  0  0  0  0
 16 30  1  0  0  0  0
 16 31  1  0  0  0  0
 16 32  1  0  0  0  0
 17 19  2  0  0  0  0
 17 20  1  0  0  0  0
 19 21  1  0  0  0  0
 19 33  1  0  0  0  0
 20 22  2  0  0  0  0
 20 34  1  0  0  0  0
 21 23  2  0  0  0  0
 21 35  1  0  0  0  0
 22 23  1  0  0  0  0
 22 36  1  0  0  0  0
 23 37  1  0  0  0  0
M  END
>  <Mol_ID>
8148

>  <Formula>
C17H14N2O3S

>  <MolWeight>
326.36966

>  <Cat>
P2178

>  <Name>
WAY-310301

>  <Synonyms>
N/A

>  <Target>
antiinflammatory

>  <Form>
free base

>  <CAS>
332921-97-8

>  <URL>
N/A

$$$$
