WAY-659977
 OpenBabel08302521443D

 55 58  0  0  0  0  0  0  0  0999 V2000
    6.1425    4.7292    1.0836 C   0  0  0  0  0  0  0  0  0  0  0  0
    5.8842    3.9395    2.1751 N   0  0  0  0  0  0  0  0  0  0  0  0
    4.0336    2.8486    1.2418 N   0  0  0  0  0  0  0  0  0  0  0  0
    5.1786    4.6172   -0.0238 C   0  0  0  0  0  0  0  0  0  0  0  0
    4.8888    3.0046    2.2026 C   0  0  0  0  0  0  0  0  0  0  0  0
    4.1417    3.6926    0.1208 C   0  0  0  0  0  0  0  0  0  0  0  0
    6.0834   -3.2362   -3.4576 C   0  0  0  0  0  0  0  0  0  0  0  0
    7.1544   -2.8967   -4.2682 N   0  0  0  0  0  0  0  0  0  0  0  0
    7.5700   -3.6318   -5.3995 C   0  0  0  0  0  0  0  0  0  0  0  0
    4.9771   -0.1475    2.3468 C   0  0  0  0  0  0  0  0  0  0  0  0
    5.8870   -2.3737   -2.2534 C   0  0  0  0  0  0  0  0  0  0  0  0
    7.1217    5.4622    1.0266 O   0  0  0  0  0  0  0  0  0  0  0  0
    4.8109    0.0831    0.9965 N   0  0  0  0  0  0  0  0  0  0  0  0
    5.3515   -4.2059   -3.6213 O   0  0  0  0  0  0  0  0  0  0  0  0
    8.9396   -3.8278   -5.6547 C   0  0  0  0  0  0  0  0  0  0  0  0
    5.7243   -0.9953    2.8289 O   0  0  0  0  0  0  0  0  0  0  0  0
    6.1342   -0.9953   -2.2861 C   0  0  0  0  0  0  0  0  0  0  0  0
    5.3705   -2.9477   -1.0839 C   0  0  0  0  0  0  0  0  0  0  0  0
    4.8307    2.1504    3.4485 C   0  0  0  0  0  0  0  0  0  0  0  0
    5.2633   -0.7662   -0.0269 C   0  0  0  0  0  0  0  0  0  0  0  0
    4.1714    0.7861    3.2374 C   0  0  0  0  0  0  0  0  0  0  0  0
    5.0867   -2.1523    0.0369 C   0  0  0  0  0  0  0  0  0  0  0  0
    5.7897   -0.1956   -1.1877 C   0  0  0  0  0  0  0  0  0  0  0  0
    5.2953    5.4080   -1.1703 C   0  0  0  0  0  0  0  0  0  0  0  0
    9.9628   -3.4296   -4.8285 O   0  0  0  0  0  0  0  0  0  0  0  0
    3.1938    3.5846   -0.8989 C   0  0  0  0  0  0  0  0  0  0  0  0
    6.6304   -4.0844   -6.3361 C   0  0  0  0  0  0  0  0  0  0  0  0
    9.3457   -4.4261   -6.8548 C   0  0  0  0  0  0  0  0  0  0  0  0
    9.8271   -3.7890   -3.4527 C   0  0  0  0  0  0  0  0  0  0  0  0
    4.3480    5.2817   -2.1855 C   0  0  0  0  0  0  0  0  0  0  0  0
    3.2951    4.3756   -2.0475 C   0  0  0  0  0  0  0  0  0  0  0  0
    7.0496   -4.6550   -7.5397 C   0  0  0  0  0  0  0  0  0  0  0  0
    8.4041   -4.8358   -7.8029 C   0  0  0  0  0  0  0  0  0  0  0  0
    6.5489    4.0190    2.9328 H   0  0  0  0  0  0  0  0  0  0  0  0
    7.8433   -2.2594   -3.8942 H   0  0  0  0  0  0  0  0  0  0  0  0
    4.5035    1.0153    0.7251 H   0  0  0  0  0  0  0  0  0  0  0  0
    6.5439   -0.5189   -3.1720 H   0  0  0  0  0  0  0  0  0  0  0  0
    5.1569   -4.0158   -1.0483 H   0  0  0  0  0  0  0  0  0  0  0  0
    5.8395    2.0331    3.8632 H   0  0  0  0  0  0  0  0  0  0  0  0
    4.2415    2.7094    4.1847 H   0  0  0  0  0  0  0  0  0  0  0  0
    4.0546    0.2914    4.2052 H   0  0  0  0  0  0  0  0  0  0  0  0
    3.1616    0.8886    2.8188 H   0  0  0  0  0  0  0  0  0  0  0  0
    4.6503   -2.6160    0.9184 H   0  0  0  0  0  0  0  0  0  0  0  0
    5.9585    0.8772   -1.2409 H   0  0  0  0  0  0  0  0  0  0  0  0
    6.1143    6.1161   -1.2700 H   0  0  0  0  0  0  0  0  0  0  0  0
    2.3701    2.8818   -0.7992 H   0  0  0  0  0  0  0  0  0  0  0  0
    5.5679   -3.9336   -6.1677 H   0  0  0  0  0  0  0  0  0  0  0  0
   10.4039   -4.5788   -7.0550 H   0  0  0  0  0  0  0  0  0  0  0  0
    9.3665   -2.9699   -2.8940 H   0  0  0  0  0  0  0  0  0  0  0  0
    9.2757   -4.7226   -3.2997 H   0  0  0  0  0  0  0  0  0  0  0  0
   10.8309   -3.9117   -3.0331 H   0  0  0  0  0  0  0  0  0  0  0  0
    4.4269    5.8923   -3.0823 H   0  0  0  0  0  0  0  0  0  0  0  0
    2.5503    4.2841   -2.8351 H   0  0  0  0  0  0  0  0  0  0  0  0
    6.3092   -4.9481   -8.2888 H   0  0  0  0  0  0  0  0  0  0  0  0
    8.7291   -5.2785   -8.7406 H   0  0  0  0  0  0  0  0  0  0  0  0
  2  1  1  0  0  0  0
  2 34  1  0  0  0  0
  3  6  1  0  0  0  0
  3  5  2  0  0  0  0
  4  1  1  0  0  0  0
  5  2  1  0  0  0  0
  6  4  2  0  0  0  0
  7 11  1  0  0  0  0
  8  7  1  0  0  0  0
  8 35  1  0  0  0  0
  9  8  1  0  0  0  0
 10 21  1  0  0  0  0
 11 17  2  0  0  0  0
 11 18  1  0  0  0  0
 12  1  2  0  0  0  0
 13 10  1  0  0  0  0
 13 36  1  0  0  0  0
 14  7  2  0  0  0  0
 15  9  2  0  0  0  0
 16 10  2  0  0  0  0
 17 23  1  0  0  0  0
 17 37  1  0  0  0  0
 18 22  2  0  0  0  0
 18 38  1  0  0  0  0
 19  5  1  0  0  0  0
 19 39  1  0  0  0  0
 19 40  1  0  0  0  0
 20 13  1  0  0  0  0
 21 19  1  0  0  0  0
 21 41  1  0  0  0  0
 21 42  1  0  0  0  0
 22 20  1  0  0  0  0
 22 43  1  0  0  0  0
 23 20  2  0  0  0  0
 23 44  1  0  0  0  0
 24  4  1  0  0  0  0
 24 45  1  0  0  0  0
 25 15  1  0  0  0  0
 26  6  1  0  0  0  0
 26 46  1  0  0  0  0
 27  9  1  0  0  0  0
 27 47  1  0  0  0  0
 28 15  1  0  0  0  0
 28 48  1  0  0  0  0
 29 25  1  0  0  0  0
 29 49  1  0  0  0  0
 29 50  1  0  0  0  0
 29 51  1  0  0  0  0
 30 24  2  0  0  0  0
 30 52  1  0  0  0  0
 31 30  1  0  0  0  0
 31 26  2  0  0  0  0
 31 53  1  0  0  0  0
 32 27  2  0  0  0  0
 32 54  1  0  0  0  0
 33 32  1  0  0  0  0
 33 28  2  0  0  0  0
 33 55  1  0  0  0  0
M  END
>  <Mol_ID>
9114

>  <Formula>
C25H22N4O4

>  <MolWeight>
442.46658

>  <Cat>
P3194

>  <Name>
WAY-659977

>  <Synonyms>
N/A

>  <Target>
Tankyrase

>  <Form>
free base

>  <CAS>
869474-43-1

>  <URL>
N/A

$$$$
