WAY-353497
 OpenBabel08302521393D

 43 45  0  0  0  0  0  0  0  0999 V2000
    1.2263   -1.4826    1.1271 C   0  0  0  0  0  0  0  0  0  0  0  0
    2.5315   -1.4293    0.3866 C   0  0  0  0  0  0  0  0  0  0  0  0
    0.1614   -0.7747    0.6114 N   0  0  0  0  0  0  0  0  0  0  0  0
    2.7350   -0.6637   -0.7711 C   0  0  0  0  0  0  0  0  0  0  0  0
   -0.6736    2.7405    2.8903 C   0  0  0  0  0  0  0  0  0  0  0  0
    3.9775   -0.6571   -1.4365 C   0  0  0  0  0  0  0  0  0  0  0  0
   -1.5053    3.5351    2.0816 C   0  0  0  0  0  0  0  0  0  0  0  0
    1.1389   -2.1409    2.1590 O   0  0  0  0  0  0  0  0  0  0  0  0
   -0.6461    1.3550    2.6702 C   0  0  0  0  0  0  0  0  0  0  0  0
    3.6035   -2.1864    0.8802 C   0  0  0  0  0  0  0  0  0  0  0  0
    5.0424   -1.4361   -0.9378 C   0  0  0  0  0  0  0  0  0  0  0  0
    4.8388   -2.1962    0.2249 C   0  0  0  0  0  0  0  0  0  0  0  0
   -2.3180    2.9210    1.1154 C   0  0  0  0  0  0  0  0  0  0  0  0
   -1.3867    0.7580    1.6370 C   0  0  0  0  0  0  0  0  0  0  0  0
   -1.1253   -0.6840    1.2807 C   0  0  0  0  0  0  0  0  0  0  0  0
   -2.2554    1.5473    0.8835 C   0  0  0  0  0  0  0  0  0  0  0  0
    0.0912    3.3535    3.8464 O   0  0  0  0  0  0  0  0  0  0  0  0
   -1.6507    4.8991    2.0858 O   0  0  0  0  0  0  0  0  0  0  0  0
    4.1836    0.1245   -2.5903 C   0  0  0  0  0  0  0  0  0  0  0  0
    6.2731   -1.4348   -1.6136 C   0  0  0  0  0  0  0  0  0  0  0  0
    0.9801    2.5507    4.6139 C   0  0  0  0  0  0  0  0  0  0  0  0
   -0.7046    5.6791    2.8020 C   0  0  0  0  0  0  0  0  0  0  0  0
    5.4154    0.1234   -3.2444 C   0  0  0  0  0  0  0  0  0  0  0  0
    6.4580   -0.6592   -2.7590 C   0  0  0  0  0  0  0  0  0  0  0  0
    0.2844   -0.1548   -0.1714 H   0  0  0  0  0  0  0  0  0  0  0  0
    1.9393   -0.0602   -1.1914 H   0  0  0  0  0  0  0  0  0  0  0  0
   -0.0156    0.6996    3.2656 H   0  0  0  0  0  0  0  0  0  0  0  0
    3.4791   -2.7802    1.7837 H   0  0  0  0  0  0  0  0  0  0  0  0
    5.6466   -2.8006    0.6336 H   0  0  0  0  0  0  0  0  0  0  0  0
   -2.9809    3.5356    0.5093 H   0  0  0  0  0  0  0  0  0  0  0  0
   -1.8772   -1.0481    0.5722 H   0  0  0  0  0  0  0  0  0  0  0  0
   -1.1670   -1.3194    2.1711 H   0  0  0  0  0  0  0  0  0  0  0  0
   -2.8641    1.1132    0.0940 H   0  0  0  0  0  0  0  0  0  0  0  0
    3.3820    0.7445   -2.9871 H   0  0  0  0  0  0  0  0  0  0  0  0
    7.1020   -2.0387   -1.2505 H   0  0  0  0  0  0  0  0  0  0  0  0
    0.4196    1.9354    5.3247 H   0  0  0  0  0  0  0  0  0  0  0  0
    1.6318    1.9374    3.9823 H   0  0  0  0  0  0  0  0  0  0  0  0
    1.6278    3.2229    5.1842 H   0  0  0  0  0  0  0  0  0  0  0  0
   -0.8789    5.6028    3.8791 H   0  0  0  0  0  0  0  0  0  0  0  0
    0.3266    5.4263    2.5320 H   0  0  0  0  0  0  0  0  0  0  0  0
   -0.8591    6.7262    2.5223 H   0  0  0  0  0  0  0  0  0  0  0  0
    5.5602    0.7357   -4.1304 H   0  0  0  0  0  0  0  0  0  0  0  0
    7.4173   -0.6638   -3.2710 H   0  0  0  0  0  0  0  0  0  0  0  0
  2  1  1  0  0  0  0
  3  1  1  0  0  0  0
  3 25  1  0  0  0  0
  4  2  2  0  0  0  0
  4 26  1  0  0  0  0
  5  9  2  0  0  0  0
  5  7  1  0  0  0  0
  6  4  1  0  0  0  0
  7 13  2  0  0  0  0
  8  1  2  0  0  0  0
  9 14  1  0  0  0  0
  9 27  1  0  0  0  0
 10  2  1  0  0  0  0
 10 28  1  0  0  0  0
 11 12  1  0  0  0  0
 11  6  2  0  0  0  0
 12 10  2  0  0  0  0
 12 29  1  0  0  0  0
 13 16  1  0  0  0  0
 13 30  1  0  0  0  0
 14 15  1  0  0  0  0
 15  3  1  0  0  0  0
 15 31  1  0  0  0  0
 15 32  1  0  0  0  0
 16 14  2  0  0  0  0
 16 33  1  0  0  0  0
 17  5  1  0  0  0  0
 18  7  1  0  0  0  0
 19  6  1  0  0  0  0
 19 34  1  0  0  0  0
 20 11  1  0  0  0  0
 20 35  1  0  0  0  0
 21 17  1  0  0  0  0
 21 36  1  0  0  0  0
 21 37  1  0  0  0  0
 21 38  1  0  0  0  0
 22 18  1  0  0  0  0
 22 39  1  0  0  0  0
 22 40  1  0  0  0  0
 22 41  1  0  0  0  0
 23 19  2  0  0  0  0
 23 42  1  0  0  0  0
 24 20  2  0  0  0  0
 24 23  1  0  0  0  0
 24 43  1  0  0  0  0
M  END
>  <Mol_ID>
8057

>  <Formula>
C20H19NO3

>  <MolWeight>
321.36976

>  <Cat>
P2765

>  <Name>
WAY-353497

>  <Synonyms>
N/A

>  <Target>
NDH-1

>  <Form>
free base

>  <CAS>
173964-49-3

>  <URL>
N/A

$$$$
