WAY-118447
 OpenBabel08302521413D

 48 50  0  0  0  0  0  0  0  0999 V2000
   -1.3779    0.0175    0.3828 N   0  0  0  0  0  0  0  0  0  0  0  0
   -1.5617    0.1284    2.0697 S   0  0  0  0  0  0  0  0  0  0  0  0
   -0.7697   -1.2290   -0.1705 C   0  0  0  0  0  0  0  0  0  0  0  0
   -0.8188    1.2354   -0.2825 C   0  0  0  0  0  0  0  0  0  0  0  0
   -2.6169   -1.2463    2.4687 C   0  0  0  0  0  0  0  0  0  0  0  0
   -0.2596   -0.1049    2.6570 O   0  0  0  0  0  0  0  0  0  0  0  0
   -2.3031    1.3355    2.3602 O   0  0  0  0  0  0  0  0  0  0  0  0
    0.7629   -1.1963   -0.1891 C   0  0  0  0  0  0  0  0  0  0  0  0
    0.7192    1.2670   -0.2980 C   0  0  0  0  0  0  0  0  0  0  0  0
   -2.1823   -2.2239    3.3684 C   0  0  0  0  0  0  0  0  0  0  0  0
   -3.8805   -1.3366    1.8793 C   0  0  0  0  0  0  0  0  0  0  0  0
    1.3079    0.0221   -0.8015 N   0  0  0  0  0  0  0  0  0  0  0  0
   -3.0110   -3.3088    3.6654 C   0  0  0  0  0  0  0  0  0  0  0  0
   -4.7044   -2.4253    2.1806 C   0  0  0  0  0  0  0  0  0  0  0  0
    2.5698   -0.0754   -1.3857 C   0  0  0  0  0  0  0  0  0  0  0  0
   -4.2765   -3.4226    3.0695 C   0  0  0  0  0  0  0  0  0  0  0  0
    3.2866    1.1902   -1.9070 C   0  0  0  0  0  0  0  0  0  0  0  0
    3.1278   -1.1738   -1.4922 O   0  0  0  0  0  0  0  0  0  0  0  0
   -5.1780   -4.5779    3.4010 C   0  0  0  0  0  0  0  0  0  0  0  0
    2.9535    1.6120   -3.2248 O   0  0  0  0  0  0  0  0  0  0  0  0
    3.7325    1.1401   -4.2513 C   0  0  0  0  0  0  0  0  0  0  0  0
    4.4110   -0.0787   -4.2547 C   0  0  0  0  0  0  0  0  0  0  0  0
    3.7854    1.9399   -5.3980 C   0  0  0  0  0  0  0  0  0  0  0  0
    5.1172   -0.5000   -5.3866 C   0  0  0  0  0  0  0  0  0  0  0  0
    4.5017    1.5256   -6.5276 C   0  0  0  0  0  0  0  0  0  0  0  0
    5.1607    0.2992   -6.5249 C   0  0  0  0  0  0  0  0  0  0  0  0
   -1.1182   -2.1117    0.3736 H   0  0  0  0  0  0  0  0  0  0  0  0
   -1.1431   -1.3396   -1.1965 H   0  0  0  0  0  0  0  0  0  0  0  0
   -1.1924    1.2417   -1.3137 H   0  0  0  0  0  0  0  0  0  0  0  0
   -1.2053    2.1457    0.1876 H   0  0  0  0  0  0  0  0  0  0  0  0
    1.1701   -1.2559    0.8263 H   0  0  0  0  0  0  0  0  0  0  0  0
    1.1191   -2.0826   -0.7262 H   0  0  0  0  0  0  0  0  0  0  0  0
    1.1130    1.4166    0.7146 H   0  0  0  0  0  0  0  0  0  0  0  0
    1.0404    2.1151   -0.9062 H   0  0  0  0  0  0  0  0  0  0  0  0
   -1.2060   -2.1499    3.8429 H   0  0  0  0  0  0  0  0  0  0  0  0
   -4.2286   -0.5701    1.1908 H   0  0  0  0  0  0  0  0  0  0  0  0
   -2.6654   -4.0629    4.3697 H   0  0  0  0  0  0  0  0  0  0  0  0
   -5.6913   -2.4954    1.7228 H   0  0  0  0  0  0  0  0  0  0  0  0
    3.0681    2.0277   -1.2382 H   0  0  0  0  0  0  0  0  0  0  0  0
    4.3698    1.0488   -1.7917 H   0  0  0  0  0  0  0  0  0  0  0  0
   -6.0518   -4.2260    3.9589 H   0  0  0  0  0  0  0  0  0  0  0  0
   -5.5127   -5.0745    2.4843 H   0  0  0  0  0  0  0  0  0  0  0  0
   -4.6647   -5.3273    4.0132 H   0  0  0  0  0  0  0  0  0  0  0  0
    4.3981   -0.7469   -3.4025 H   0  0  0  0  0  0  0  0  0  0  0  0
    3.2703    2.8967   -5.4177 H   0  0  0  0  0  0  0  0  0  0  0  0
    5.6211   -1.4635   -5.3771 H   0  0  0  0  0  0  0  0  0  0  0  0
    4.5385    2.1565   -7.4127 H   0  0  0  0  0  0  0  0  0  0  0  0
    5.7007   -0.0375   -7.4057 H   0  0  0  0  0  0  0  0  0  0  0  0
  1  2  1  0  0  0  0
  1  3  1  0  0  0  0
  1  4  1  0  0  0  0
  2  5  1  0  0  0  0
  2  6  2  0  0  0  0
  2  7  2  0  0  0  0
  3  8  1  0  0  0  0
  3 27  1  0  0  0  0
  3 28  1  0  0  0  0
  4  9  1  0  0  0  0
  4 29  1  0  0  0  0
  4 30  1  0  0  0  0
  5 10  2  0  0  0  0
  5 11  1  0  0  0  0
  8 12  1  0  0  0  0
  8 31  1  0  0  0  0
  8 32  1  0  0  0  0
  9 12  1  0  0  0  0
  9 33  1  0  0  0  0
  9 34  1  0  0  0  0
 10 13  1  0  0  0  0
 10 35  1  0  0  0  0
 11 14  2  0  0  0  0
 11 36  1  0  0  0  0
 12 15  1  0  0  0  0
 13 16  2  0  0  0  0
 13 37  1  0  0  0  0
 14 16  1  0  0  0  0
 14 38  1  0  0  0  0
 15 17  1  0  0  0  0
 15 18  2  0  0  0  0
 16 19  1  0  0  0  0
 17 20  1  0  0  0  0
 17 39  1  0  0  0  0
 17 40  1  0  0  0  0
 19 41  1  0  0  0  0
 19 42  1  0  0  0  0
 19 43  1  0  0  0  0
 20 21  1  0  0  0  0
 21 22  2  0  0  0  0
 21 23  1  0  0  0  0
 22 24  1  0  0  0  0
 22 44  1  0  0  0  0
 23 25  2  0  0  0  0
 23 45  1  0  0  0  0
 24 26  2  0  0  0  0
 24 46  1  0  0  0  0
 25 26  1  0  0  0  0
 25 47  1  0  0  0  0
 26 48  1  0  0  0  0
M  END
>  <Mol_ID>
8373

>  <Formula>
C19H21ClN2O4S

>  <MolWeight>
408.89904

>  <Cat>
P2051

>  <Name>
WAY-118447

>  <Synonyms>
N/A

>  <Target>
11¦Â-HDS1

>  <Form>
free base

>  <CAS>
1173182-25-6

>  <URL>
N/A

$$$$
