WAY-382510
 OpenBabel08302521413D

 33 35  0  0  0  0  0  0  0  0999 V2000
    0.2827   -1.7685   -0.7516 N   0  0  0  0  0  0  0  0  0  0  0  0
   -0.9721   -1.6115   -0.1397 C   0  0  0  0  0  0  0  0  0  0  0  0
   -1.5392   -0.2922   -0.7069 C   0  0  0  0  0  0  0  0  0  0  0  0
   -0.7633   -0.0462   -1.9111 C   0  0  0  0  0  0  0  0  0  0  0  0
    0.3105   -0.9486   -1.9086 C   0  0  0  0  0  0  0  0  0  0  0  0
    1.0711   -2.9531   -0.4567 C   0  0  0  0  0  0  0  0  0  0  0  0
    2.5992   -2.8572   -0.3802 C   0  0  0  0  0  0  0  0  0  0  0  0
   -1.5764   -2.3837    0.5720 O   0  0  0  0  0  0  0  0  0  0  0  0
    3.3490   -3.1456    0.7281 N   0  0  0  0  0  0  0  0  0  0  0  0
   -2.4197    0.3822   -0.2354 O   0  0  0  0  0  0  0  0  0  0  0  0
    3.2474   -2.5316   -1.3729 O   0  0  0  0  0  0  0  0  0  0  0  0
    3.1863   -3.2841    2.1173 C   0  0  0  0  0  0  0  0  0  0  0  0
   -1.1056    0.7682   -2.9743 C   0  0  0  0  0  0  0  0  0  0  0  0
    1.1049   -1.0266   -3.0371 C   0  0  0  0  0  0  0  0  0  0  0  0
    2.0004   -3.0831    2.8354 C   0  0  0  0  0  0  0  0  0  0  0  0
    4.3556   -3.5545    2.8543 C   0  0  0  0  0  0  0  0  0  0  0  0
   -0.3460    0.6362   -4.1318 C   0  0  0  0  0  0  0  0  0  0  0  0
    0.7529   -0.2453   -4.1535 C   0  0  0  0  0  0  0  0  0  0  0  0
    2.0086   -3.0995    4.2359 C   0  0  0  0  0  0  0  0  0  0  0  0
    4.3719   -3.5783    4.2414 C   0  0  0  0  0  0  0  0  0  0  0  0
    3.2033   -3.3177    4.9447 C   0  0  0  0  0  0  0  0  0  0  0  0
    0.6861   -3.4285    0.4438 H   0  0  0  0  0  0  0  0  0  0  0  0
    0.8564   -3.6746   -1.2559 H   0  0  0  0  0  0  0  0  0  0  0  0
    4.3254   -3.1475    0.4394 H   0  0  0  0  0  0  0  0  0  0  0  0
   -1.9831    1.4145   -2.9358 H   0  0  0  0  0  0  0  0  0  0  0  0
    1.9351   -1.7159   -3.1229 H   0  0  0  0  0  0  0  0  0  0  0  0
    1.0541   -2.8568    2.3527 H   0  0  0  0  0  0  0  0  0  0  0  0
    5.2916   -3.7498    2.3329 H   0  0  0  0  0  0  0  0  0  0  0  0
   -0.6244    1.1854   -5.0294 H   0  0  0  0  0  0  0  0  0  0  0  0
    1.3138   -0.3573   -5.0838 H   0  0  0  0  0  0  0  0  0  0  0  0
    1.0941   -2.9186    4.7869 H   0  0  0  0  0  0  0  0  0  0  0  0
    5.2994   -3.7580    4.7840 H   0  0  0  0  0  0  0  0  0  0  0  0
    3.1986   -3.3037    6.0371 H   0  0  0  0  0  0  0  0  0  0  0  0
  2  1  1  0  0  0  0
  3  2  1  0  0  0  0
  3  4  1  0  0  0  0
  4  5  2  0  0  0  0
  5  1  1  0  0  0  0
  6  1  1  0  0  0  0
  6 22  1  0  0  0  0
  6 23  1  0  0  0  0
  7  6  1  0  0  0  0
  8  2  2  0  0  0  0
  9  7  1  0  0  0  0
  9 24  1  0  0  0  0
 10  3  2  0  0  0  0
 11  7  2  0  0  0  0
 12  9  1  0  0  0  0
 13  4  1  0  0  0  0
 13 17  2  0  0  0  0
 13 25  1  0  0  0  0
 14  5  1  0  0  0  0
 14 26  1  0  0  0  0
 15 12  2  0  0  0  0
 15 27  1  0  0  0  0
 16 12  1  0  0  0  0
 16 28  1  0  0  0  0
 17 18  1  0  0  0  0
 17 29  1  0  0  0  0
 18 14  2  0  0  0  0
 18 30  1  0  0  0  0
 19 15  1  0  0  0  0
 19 31  1  0  0  0  0
 20 16  2  0  0  0  0
 20 32  1  0  0  0  0
 21 20  1  0  0  0  0
 21 19  2  0  0  0  0
 21 33  1  0  0  0  0
M  END
>  <Mol_ID>
8363

>  <Formula>
C16H12N2O3

>  <MolWeight>
280.27808

>  <Cat>
P2808

>  <Name>
WAY-382510

>  <Synonyms>
N/A

>  <Target>
others

>  <Form>
free base

>  <CAS>
1008385-75-8

>  <URL>
N/A

$$$$
