WAY-607122
 OpenBabel08302521433D

 37 41  0  0  0  0  0  0  0  0999 V2000
    0.7157    0.4799   -0.0060 N   0  0  0  0  0  0  0  0  0  0  0  0
    1.1668   -0.8389   -0.0097 C   0  0  0  0  0  0  0  0  0  0  0  0
    1.5493    1.5577    0.0212 C   0  0  0  0  0  0  0  0  0  0  0  0
    2.4184   -1.1631    0.0133 N   0  0  0  0  0  0  0  0  0  0  0  0
    0.0745   -1.6792   -0.0318 N   0  0  0  0  0  0  0  0  0  0  0  0
    2.9759    1.1792    0.0223 C   0  0  0  0  0  0  0  0  0  0  0  0
    4.8297   -0.5188   -2.7672 C   0  0  0  0  0  0  0  0  0  0  0  0
    4.8497    0.7952   -2.7537 N   0  0  0  0  0  0  0  0  0  0  0  0
   -0.6893    0.4641    0.0002 C   0  0  0  0  0  0  0  0  0  0  0  0
    4.3183   -1.2540   -4.2253 S   0  0  0  0  0  0  0  0  0  0  0  0
    3.3268   -0.1174    0.0043 C   0  0  0  0  0  0  0  0  0  0  0  0
   -1.0742   -0.8900    0.0028 C   0  0  0  0  0  0  0  0  0  0  0  0
    4.3659    1.2765   -3.9664 C   0  0  0  0  0  0  0  0  0  0  0  0
    4.0046    0.2959   -4.8946 C   0  0  0  0  0  0  0  0  0  0  0  0
    5.3093   -1.4976   -1.3997 S   0  0  0  0  0  0  0  0  0  0  0  0
    1.2352    2.7415    0.0576 O   0  0  0  0  0  0  0  0  0  0  0  0
    4.8015   -0.4740    0.0031 C   0  0  0  0  0  0  0  0  0  0  0  0
   -1.6054    1.4945    0.0063 C   0  0  0  0  0  0  0  0  0  0  0  0
   -2.4028   -1.2465   -0.0110 C   0  0  0  0  0  0  0  0  0  0  0  0
    4.1968    2.6308   -4.3262 C   0  0  0  0  0  0  0  0  0  0  0  0
    3.4712    0.6155   -6.1539 C   0  0  0  0  0  0  0  0  0  0  0  0
   -2.9566    1.1405    0.0046 C   0  0  0  0  0  0  0  0  0  0  0  0
   -3.3510   -0.2141   -0.0054 C   0  0  0  0  0  0  0  0  0  0  0  0
    3.2937    1.9624   -6.4768 C   0  0  0  0  0  0  0  0  0  0  0  0
    3.6563    2.9599   -5.5765 C   0  0  0  0  0  0  0  0  0  0  0  0
    0.1209   -2.6780    0.0560 H   0  0  0  0  0  0  0  0  0  0  0  0
    3.6909    1.9909    0.0253 H   0  0  0  0  0  0  0  0  0  0  0  0
    5.4325    0.4223    0.0201 H   0  0  0  0  0  0  0  0  0  0  0  0
    5.0300   -1.0295    0.9201 H   0  0  0  0  0  0  0  0  0  0  0  0
   -1.2996    2.5350    0.0079 H   0  0  0  0  0  0  0  0  0  0  0  0
   -2.7156   -2.2839   -0.0264 H   0  0  0  0  0  0  0  0  0  0  0  0
    4.4740    3.4132   -3.6270 H   0  0  0  0  0  0  0  0  0  0  0  0
    3.1905   -0.1661   -6.8545 H   0  0  0  0  0  0  0  0  0  0  0  0
   -3.7151    1.9203    0.0069 H   0  0  0  0  0  0  0  0  0  0  0  0
   -4.4120   -0.4575   -0.0120 H   0  0  0  0  0  0  0  0  0  0  0  0
    2.8667    2.2301   -7.4397 H   0  0  0  0  0  0  0  0  0  0  0  0
    3.5121    4.0055   -5.8443 H   0  0  0  0  0  0  0  0  0  0  0  0
  2  1  1  0  0  0  0
  3  1  1  0  0  0  0
  4  2  2  0  0  0  0
  5  2  1  0  0  0  0
  5 26  1  0  0  0  0
  6  3  1  0  0  0  0
  6 27  1  0  0  0  0
  7 15  1  0  0  0  0
  8  7  2  0  0  0  0
  9  1  1  0  0  0  0
 10  7  1  0  0  0  0
 11  6  2  0  0  0  0
 11  4  1  0  0  0  0
 12  9  2  0  0  0  0
 12  5  1  0  0  0  0
 13  8  1  0  0  0  0
 14 10  1  0  0  0  0
 14 13  2  0  0  0  0
 15 17  1  0  0  0  0
 16  3  2  0  0  0  0
 17 11  1  0  0  0  0
 17 28  1  0  0  0  0
 17 29  1  0  0  0  0
 18  9  1  0  0  0  0
 18 30  1  0  0  0  0
 19 12  1  0  0  0  0
 19 31  1  0  0  0  0
 20 13  1  0  0  0  0
 20 32  1  0  0  0  0
 21 14  1  0  0  0  0
 21 33  1  0  0  0  0
 22 18  2  0  0  0  0
 22 34  1  0  0  0  0
 23 22  1  0  0  0  0
 23 19  2  0  0  0  0
 23 35  1  0  0  0  0
 24 21  2  0  0  0  0
 24 25  1  0  0  0  0
 24 36  1  0  0  0  0
 25 20  2  0  0  0  0
 25 37  1  0  0  0  0
M  END
>  <Mol_ID>
8735

>  <Formula>
C18H12N4OS2

>  <MolWeight>
364.44408

>  <Cat>
P2881

>  <Name>
WAY-607122

>  <Synonyms>
N/A

>  <Target>
Others

>  <Form>
free base

>  <CAS>
721891-12-9

>  <URL>
N/A

$$$$
