WAY-639359
 OpenBabel08302521433D

 30 32  0  0  0  0  0  0  0  0999 V2000
   -0.3526   -0.6905   -0.0263 N   0  0  0  0  0  0  0  0  0  0  0  0
   -1.6945   -1.0886   -0.0284 C   0  0  0  0  0  0  0  0  0  0  0  0
   -0.3001    0.7007   -0.0138 C   0  0  0  0  0  0  0  0  0  0  0  0
    0.8199   -1.4623   -0.0408 C   0  0  0  0  0  0  0  0  0  0  0  0
   -2.1082   -2.4926   -0.0722 C   0  0  0  0  0  0  0  0  0  0  0  0
   -2.4662    0.0793    0.0812 C   0  0  0  0  0  0  0  0  0  0  0  0
   -1.5796    1.1880    0.0355 C   0  0  0  0  0  0  0  0  0  0  0  0
    0.9751    1.3338   -0.0282 C   0  0  0  0  0  0  0  0  0  0  0  0
    2.0241   -0.8647   -0.0385 C   0  0  0  0  0  0  0  0  0  0  0  0
   -3.4267   -2.8808   -0.6296 C   0  0  0  0  0  0  0  0  0  0  0  0
   -1.4165   -3.4154    0.3617 O   0  0  0  0  0  0  0  0  0  0  0  0
   -3.9417    0.2493    0.2395 C   0  0  0  0  0  0  0  0  0  0  0  0
    2.0917    0.5854   -0.0337 C   0  0  0  0  0  0  0  0  0  0  0  0
   -4.1307   -3.9533   -0.0727 C   0  0  0  0  0  0  0  0  0  0  0  0
   -4.0128   -2.2075   -1.6923 C   0  0  0  0  0  0  0  0  0  0  0  0
   -5.4135   -4.2448   -0.5311 C   0  0  0  0  0  0  0  0  0  0  0  0
   -5.2660   -2.4584   -2.1468 N   0  0  0  0  0  0  0  0  0  0  0  0
   -5.9427   -3.4604   -1.5434 C   0  0  0  0  0  0  0  0  0  0  0  0
    0.7209   -2.5384   -0.0431 H   0  0  0  0  0  0  0  0  0  0  0  0
   -1.8518    2.2363    0.0761 H   0  0  0  0  0  0  0  0  0  0  0  0
    1.0339    2.4183   -0.0244 H   0  0  0  0  0  0  0  0  0  0  0  0
    2.9452   -1.4366   -0.0358 H   0  0  0  0  0  0  0  0  0  0  0  0
   -4.1562    1.0704    0.9311 H   0  0  0  0  0  0  0  0  0  0  0  0
   -4.3986    0.5010   -0.7239 H   0  0  0  0  0  0  0  0  0  0  0  0
   -4.4233   -0.6421    0.6462 H   0  0  0  0  0  0  0  0  0  0  0  0
    3.0724    1.0481   -0.0344 H   0  0  0  0  0  0  0  0  0  0  0  0
   -3.6909   -4.5459    0.7264 H   0  0  0  0  0  0  0  0  0  0  0  0
   -3.5008   -1.4032   -2.2133 H   0  0  0  0  0  0  0  0  0  0  0  0
   -5.9901   -5.0558   -0.0996 H   0  0  0  0  0  0  0  0  0  0  0  0
   -6.9534   -3.6232   -1.9080 H   0  0  0  0  0  0  0  0  0  0  0  0
  1  2  1  0  0  0  0
  1  3  1  0  0  0  0
  1  4  1  0  0  0  0
  2  5  1  0  0  0  0
  2  6  2  0  0  0  0
  3  7  2  0  0  0  0
  3  8  1  0  0  0  0
  4  9  2  0  0  0  0
  4 19  1  0  0  0  0
  5 10  1  0  0  0  0
  5 11  2  0  0  0  0
  6 12  1  0  0  0  0
  6  7  1  0  0  0  0
  7 20  1  0  0  0  0
  8 13  2  0  0  0  0
  8 21  1  0  0  0  0
  9 13  1  0  0  0  0
  9 22  1  0  0  0  0
 10 14  2  0  0  0  0
 10 15  1  0  0  0  0
 12 23  1  0  0  0  0
 12 24  1  0  0  0  0
 12 25  1  0  0  0  0
 13 26  1  0  0  0  0
 14 16  1  0  0  0  0
 14 27  1  0  0  0  0
 15 17  2  0  0  0  0
 15 28  1  0  0  0  0
 16 18  2  0  0  0  0
 16 29  1  0  0  0  0
 17 18  1  0  0  0  0
 18 30  1  0  0  0  0
M  END
>  <Mol_ID>
8812

>  <Formula>
C15H12N2O

>  <MolWeight>
236.26858

>  <Cat>
P3076

>  <Name>
WAY-639359

>  <Synonyms>
N/A

>  <Target>
antiinflammatory

>  <Form>
free base

>  <CAS>
58962-95-1

>  <URL>
N/A

$$$$
