WAY-659100
 OpenBabel08302521433D

 50 51  0  0  0  0  0  0  0  0999 V2000
    0.9838   -0.0666    0.0520 C   0  0  0  0  0  0  0  0  0  0  0  0
    0.3809   -0.2612    1.2865 N   0  0  0  0  0  0  0  0  0  0  0  0
   -2.9299    1.4275    3.2307 C   0  0  0  0  0  0  0  0  0  0  0  0
   -8.1829    5.7106    5.7434 C   0  0  0  0  0  0  0  0  0  0  0  0
   -3.6227    1.3442    4.4274 N   0  0  0  0  0  0  0  0  0  0  0  0
    0.5264   -0.8946   -0.9319 O   0  0  0  0  0  0  0  0  0  0  0  0
   -1.7006    0.5240    3.1375 C   0  0  0  0  0  0  0  0  0  0  0  0
    1.8597    0.7745   -0.1227 O   0  0  0  0  0  0  0  0  0  0  0  0
   -8.0014    4.3629    6.1696 O   0  0  0  0  0  0  0  0  0  0  0  0
   -0.6724   -1.2224    1.5722 C   0  0  0  0  0  0  0  0  0  0  0  0
    0.7382    0.6069    2.3983 C   0  0  0  0  0  0  0  0  0  0  0  0
   -3.2239    2.1484    2.2807 O   0  0  0  0  0  0  0  0  0  0  0  0
    1.1286   -0.8350   -2.2610 C   0  0  0  0  0  0  0  0  0  0  0  0
   -1.9446   -0.4996    2.0090 C   0  0  0  0  0  0  0  0  0  0  0  0
   -0.4716    1.4108    2.8583 C   0  0  0  0  0  0  0  0  0  0  0  0
   -4.7763    2.0892    4.7791 C   0  0  0  0  0  0  0  0  0  0  0  0
   -7.2003    6.1847    4.9495 F   0  0  0  0  0  0  0  0  0  0  0  0
   -9.3597    5.8171    5.0891 F   0  0  0  0  0  0  0  0  0  0  0  0
   -8.2397    6.5006    6.8401 F   0  0  0  0  0  0  0  0  0  0  0  0
   -6.9771    3.6408    5.6389 C   0  0  0  0  0  0  0  0  0  0  0  0
   -5.4157    2.9817    3.9135 C   0  0  0  0  0  0  0  0  0  0  0  0
   -5.3009    1.9298    6.0652 C   0  0  0  0  0  0  0  0  0  0  0  0
   -6.3960    2.6964    6.4892 C   0  0  0  0  0  0  0  0  0  0  0  0
   -6.5168    3.7387    4.3336 C   0  0  0  0  0  0  0  0  0  0  0  0
    2.6069   -1.2542   -2.2218 C   0  0  0  0  0  0  0  0  0  0  0  0
    0.3677   -1.8584   -3.1253 C   0  0  0  0  0  0  0  0  0  0  0  0
    0.9560    0.5425   -2.9202 C   0  0  0  0  0  0  0  0  0  0  0  0
   -3.2489    0.7371    5.1465 H   0  0  0  0  0  0  0  0  0  0  0  0
   -1.5397   -0.0130    4.0800 H   0  0  0  0  0  0  0  0  0  0  0  0
   -0.3136   -1.8667    2.3846 H   0  0  0  0  0  0  0  0  0  0  0  0
   -0.8777   -1.8647    0.7116 H   0  0  0  0  0  0  0  0  0  0  0  0
    1.5471    1.2926    2.1264 H   0  0  0  0  0  0  0  0  0  0  0  0
    1.1111   -0.0273    3.2105 H   0  0  0  0  0  0  0  0  0  0  0  0
   -2.6942   -1.2306    2.3367 H   0  0  0  0  0  0  0  0  0  0  0  0
   -2.3704    0.0060    1.1329 H   0  0  0  0  0  0  0  0  0  0  0  0
   -0.7085    2.1534    2.0852 H   0  0  0  0  0  0  0  0  0  0  0  0
   -0.2149    1.9810    3.7598 H   0  0  0  0  0  0  0  0  0  0  0  0
   -5.0852    3.1277    2.8915 H   0  0  0  0  0  0  0  0  0  0  0  0
   -4.8653    1.2234    6.7670 H   0  0  0  0  0  0  0  0  0  0  0  0
   -6.7876    2.5667    7.4945 H   0  0  0  0  0  0  0  0  0  0  0  0
   -6.9827    4.3986    3.6051 H   0  0  0  0  0  0  0  0  0  0  0  0
    2.7069   -2.3029   -1.9205 H   0  0  0  0  0  0  0  0  0  0  0  0
    3.0782   -1.1358   -3.2043 H   0  0  0  0  0  0  0  0  0  0  0  0
    3.1911   -0.6703   -1.5061 H   0  0  0  0  0  0  0  0  0  0  0  0
   -0.6466   -1.5082   -3.3497 H   0  0  0  0  0  0  0  0  0  0  0  0
    0.8773   -2.0362   -4.0800 H   0  0  0  0  0  0  0  0  0  0  0  0
    0.2598   -2.8165   -2.6056 H   0  0  0  0  0  0  0  0  0  0  0  0
   -0.1002    0.8326   -2.9467 H   0  0  0  0  0  0  0  0  0  0  0  0
    1.4864    1.3350   -2.3868 H   0  0  0  0  0  0  0  0  0  0  0  0
    1.3364    0.5366   -3.9485 H   0  0  0  0  0  0  0  0  0  0  0  0
  2  1  1  0  0  0  0
  3  7  1  0  0  0  0
  4  9  1  0  0  0  0
  5  3  1  0  0  0  0
  5 28  1  0  0  0  0
  6  1  1  0  0  0  0
  7 15  1  0  0  0  0
  7 14  1  0  0  0  0
  7 29  1  0  0  0  0
  8  1  2  0  0  0  0
  9 20  1  0  0  0  0
 10  2  1  0  0  0  0
 10 30  1  0  0  0  0
 10 31  1  0  0  0  0
 11  2  1  0  0  0  0
 11 32  1  0  0  0  0
 11 33  1  0  0  0  0
 12  3  2  0  0  0  0
 13  6  1  0  0  0  0
 14 10  1  0  0  0  0
 14 34  1  0  0  0  0
 14 35  1  0  0  0  0
 15 11  1  0  0  0  0
 15 36  1  0  0  0  0
 15 37  1  0  0  0  0
 16  5  1  0  0  0  0
 17  4  1  0  0  0  0
 18  4  1  0  0  0  0
 19  4  1  0  0  0  0
 20 23  2  0  0  0  0
 20 24  1  0  0  0  0
 21 16  1  0  0  0  0
 21 38  1  0  0  0  0
 22 16  2  0  0  0  0
 22 39  1  0  0  0  0
 23 22  1  0  0  0  0
 23 40  1  0  0  0  0
 24 21  2  0  0  0  0
 24 41  1  0  0  0  0
 25 13  1  0  0  0  0
 25 42  1  0  0  0  0
 25 43  1  0  0  0  0
 25 44  1  0  0  0  0
 26 13  1  0  0  0  0
 26 45  1  0  0  0  0
 26 46  1  0  0  0  0
 26 47  1  0  0  0  0
 27 13  1  0  0  0  0
 27 48  1  0  0  0  0
 27 49  1  0  0  0  0
 27 50  1  0  0  0  0
M  END
>  <Mol_ID>
8832

>  <Formula>
C18H23F3N2O4

>  <MolWeight>
388.3814296

>  <Cat>
P3183

>  <Name>
WAY-659100

>  <Synonyms>
N/A

>  <Target>
hormone sensitive lipase,metalloprotease

>  <Form>
free base

>  <CAS>
308830-70-8

>  <URL>
N/A

$$$$
