WAY-656135
 OpenBabel08302521423D

 38 39  0  0  0  0  0  0  0  0999 V2000
    0.8630   -0.1567   -0.1744 C   0  0  0  0  0  0  0  0  0  0  0  0
    0.2288    0.7115   -1.0554 N   0  0  0  0  0  0  0  0  0  0  0  0
   -0.2544    0.4268   -3.4923 C   0  0  3  0  0  0  0  0  0  0  0  0
    0.7667    0.8037   -2.4215 C   0  0  0  0  0  0  0  0  0  0  0  0
   -0.6574   -1.0369   -3.3526 C   0  0  0  0  0  0  0  0  0  0  0  0
    0.3962   -0.1566    1.1154 N   0  0  0  0  0  0  0  0  0  0  0  0
   -1.6943    1.5737   -3.4367 S   0  0  0  0  0  0  0  0  0  0  0  0
    1.8069   -0.8538   -0.5523 O   0  0  0  0  0  0  0  0  0  0  0  0
   -1.7713   -1.4574   -3.0608 O   0  0  0  0  0  0  0  0  0  0  0  0
    1.1160   -0.5524    2.2693 C   0  0  0  0  0  0  0  0  0  0  0  0
    0.4216   -1.8339   -3.6098 O   0  0  0  0  0  0  0  0  0  0  0  0
   -0.8438    1.6687   -0.7557 C   0  0  0  0  0  0  0  0  0  0  0  0
   -2.0731    1.4719   -1.6515 C   0  0  0  0  0  0  0  0  0  0  0  0
    2.5589   -0.8527    4.6705 C   0  0  0  0  0  0  0  0  0  0  0  0
    2.4624   -0.9219    2.2485 C   0  0  0  0  0  0  0  0  0  0  0  0
    0.4675   -0.4522    3.5055 C   0  0  0  0  0  0  0  0  0  0  0  0
    1.1844   -0.5998    4.6988 C   0  0  0  0  0  0  0  0  0  0  0  0
    3.1779   -1.0738    3.4385 C   0  0  0  0  0  0  0  0  0  0  0  0
    3.3824   -0.8472    5.9228 C   0  0  0  0  0  0  0  0  0  0  0  0
    0.1855   -3.2305   -3.4260 C   0  0  0  0  0  0  0  0  0  0  0  0
    0.1872    0.5474   -4.4886 H   0  0  0  0  0  0  0  0  0  0  0  0
    1.6607    0.1810   -2.5364 H   0  0  0  0  0  0  0  0  0  0  0  0
    1.1121    1.8356   -2.5646 H   0  0  0  0  0  0  0  0  0  0  0  0
   -0.5614    0.1066    1.2650 H   0  0  0  0  0  0  0  0  0  0  0  0
   -1.1572    1.6155    0.2869 H   0  0  0  0  0  0  0  0  0  0  0  0
   -0.4293    2.6761   -0.8959 H   0  0  0  0  0  0  0  0  0  0  0  0
   -2.5431    0.5046   -1.4490 H   0  0  0  0  0  0  0  0  0  0  0  0
   -2.8134    2.2473   -1.4288 H   0  0  0  0  0  0  0  0  0  0  0  0
    3.0065   -1.0563    1.3198 H   0  0  0  0  0  0  0  0  0  0  0  0
   -0.5899   -0.2081    3.5629 H   0  0  0  0  0  0  0  0  0  0  0  0
    0.6696   -0.4700    5.6482 H   0  0  0  0  0  0  0  0  0  0  0  0
    4.2372   -1.3172    3.3885 H   0  0  0  0  0  0  0  0  0  0  0  0
    3.7429   -1.8523    6.1564 H   0  0  0  0  0  0  0  0  0  0  0  0
    4.2415   -0.1783    5.7925 H   0  0  0  0  0  0  0  0  0  0  0  0
    2.8093   -0.4700    6.7758 H   0  0  0  0  0  0  0  0  0  0  0  0
    0.0157   -3.4516   -2.3677 H   0  0  0  0  0  0  0  0  0  0  0  0
   -0.6612   -3.5650   -4.0336 H   0  0  0  0  0  0  0  0  0  0  0  0
    1.0782   -3.7703   -3.7541 H   0  0  0  0  0  0  0  0  0  0  0  0
  2  1  1  0  0  0  0
  3  4  1  0  0  0  0
  3 21  1  0  0  0  0
  4  2  1  0  0  0  0
  4 22  1  0  0  0  0
  4 23  1  0  0  0  0
  5  3  1  0  0  0  0
  6  1  1  0  0  0  0
  6 24  1  0  0  0  0
  7 13  1  0  0  0  0
  7  3  1  0  0  0  0
  8  1  2  0  0  0  0
  9  5  2  0  0  0  0
 10  6  1  0  0  0  0
 11  5  1  0  0  0  0
 12  2  1  0  0  0  0
 12 25  1  0  0  0  0
 12 26  1  0  0  0  0
 13 12  1  0  0  0  0
 13 27  1  0  0  0  0
 13 28  1  0  0  0  0
 14 17  2  0  0  0  0
 14 18  1  0  0  0  0
 15 10  1  0  0  0  0
 15 29  1  0  0  0  0
 16 10  2  0  0  0  0
 16 30  1  0  0  0  0
 17 16  1  0  0  0  0
 17 31  1  0  0  0  0
 18 15  2  0  0  0  0
 18 32  1  0  0  0  0
 19 14  1  0  0  0  0
 19 33  1  0  0  0  0
 19 34  1  0  0  0  0
 19 35  1  0  0  0  0
 20 11  1  0  0  0  0
 20 36  1  0  0  0  0
 20 37  1  0  0  0  0
 20 38  1  0  0  0  0
M  END
>  <Mol_ID>
8525

>  <Formula>
C14H18N2O3S

>  <MolWeight>
294.36932

>  <Cat>
P3136

>  <Name>
WAY-656135

>  <Synonyms>
N/A

>  <Target>
Androgen Receptor

>  <Form>
free base

>  <CAS>
1351286-63-9

>  <URL>
N/A

$$$$
