WAY-324107
 OpenBabel08302521423D

 37 39  0  0  0  0  0  0  0  0999 V2000
   -4.0596    0.7668   -0.3599 C   0  0  0  0  0  0  0  0  0  0  0  0
   -3.1117    1.7368   -0.2315 O   0  0  0  0  0  0  0  0  0  0  0  0
   -1.4119    1.5404   -2.0445 C   0  0  0  0  0  0  0  0  0  0  0  0
   -1.7365    1.4579   -0.5391 C   0  0  3  0  0  0  0  0  0  0  0  0
   -3.5769   -0.6076   -0.6461 C   0  0  0  0  0  0  0  0  0  0  0  0
   -2.2281   -0.9386   -0.4564 C   0  0  0  0  0  0  0  0  0  0  0  0
   -2.1637    2.4863   -2.7245 N   0  0  0  0  0  0  0  0  0  0  0  0
   -1.2962    0.1219    0.0544 C   0  0  0  0  0  0  0  0  0  0  0  0
   -5.2489    1.0213   -0.2423 O   0  0  0  0  0  0  0  0  0  0  0  0
   -0.4989    0.8698   -2.5252 O   0  0  0  0  0  0  0  0  0  0  0  0
   -2.0472    2.8047   -4.0954 C   0  0  0  0  0  0  0  0  0  0  0  0
   -1.7424    3.6132   -6.7778 C   0  0  0  0  0  0  0  0  0  0  0  0
   -1.3456    2.0133   -5.0085 C   0  0  0  0  0  0  0  0  0  0  0  0
   -2.6578    3.9744   -4.5565 C   0  0  0  0  0  0  0  0  0  0  0  0
   -2.5024    4.3754   -5.8902 C   0  0  0  0  0  0  0  0  0  0  0  0
   -1.1923    2.4126   -6.3409 C   0  0  0  0  0  0  0  0  0  0  0  0
   -1.6327    4.1061   -8.0489 O   0  0  0  0  0  0  0  0  0  0  0  0
   -1.7831   -2.2304   -0.7554 C   0  0  0  0  0  0  0  0  0  0  0  0
   -4.4779   -1.5683   -1.1165 C   0  0  0  0  0  0  0  0  0  0  0  0
   -0.4315    3.7566   -8.7324 C   0  0  0  0  0  0  0  0  0  0  0  0
   -2.6803   -3.1795   -1.2477 C   0  0  0  0  0  0  0  0  0  0  0  0
   -4.0255   -2.8521   -1.4224 C   0  0  0  0  0  0  0  0  0  0  0  0
   -1.1477    2.2536   -0.0651 H   0  0  0  0  0  0  0  0  0  0  0  0
   -2.7945    3.0566   -2.1684 H   0  0  0  0  0  0  0  0  0  0  0  0
   -0.2570   -0.1059   -0.2094 H   0  0  0  0  0  0  0  0  0  0  0  0
   -1.3723    0.1450    1.1478 H   0  0  0  0  0  0  0  0  0  0  0  0
   -0.9110    1.0608   -4.7214 H   0  0  0  0  0  0  0  0  0  0  0  0
   -3.2332    4.6081   -3.8872 H   0  0  0  0  0  0  0  0  0  0  0  0
   -2.9575    5.3014   -6.2329 H   0  0  0  0  0  0  0  0  0  0  0  0
   -0.6479    1.7548   -7.0099 H   0  0  0  0  0  0  0  0  0  0  0  0
   -0.7356   -2.4985   -0.6324 H   0  0  0  0  0  0  0  0  0  0  0  0
   -5.5275   -1.3175   -1.2539 H   0  0  0  0  0  0  0  0  0  0  0  0
    0.4521    4.0366   -8.1470 H   0  0  0  0  0  0  0  0  0  0  0  0
   -0.4095    2.6930   -8.9899 H   0  0  0  0  0  0  0  0  0  0  0  0
   -0.4037    4.3202   -9.6699 H   0  0  0  0  0  0  0  0  0  0  0  0
   -2.3289   -4.1772   -1.5015 H   0  0  0  0  0  0  0  0  0  0  0  0
   -4.7210   -3.5948   -1.8054 H   0  0  0  0  0  0  0  0  0  0  0  0
  2  1  1  0  0  0  0
  3  4  1  0  0  0  0
  4  2  1  0  0  0  0
  4 23  1  0  0  0  0
  5  1  1  0  0  0  0
  6  5  2  0  0  0  0
  7  3  1  0  0  0  0
  7 24  1  0  0  0  0
  8  6  1  0  0  0  0
  8  4  1  0  0  0  0
  8 25  1  0  0  0  0
  8 26  1  0  0  0  0
  9  1  2  0  0  0  0
 10  3  2  0  0  0  0
 11  7  1  0  0  0  0
 12 15  2  0  0  0  0
 12 16  1  0  0  0  0
 13 11  1  0  0  0  0
 13 27  1  0  0  0  0
 14 11  2  0  0  0  0
 14 28  1  0  0  0  0
 15 14  1  0  0  0  0
 15 29  1  0  0  0  0
 16 13  2  0  0  0  0
 16 30  1  0  0  0  0
 17 12  1  0  0  0  0
 18  6  1  0  0  0  0
 18 31  1  0  0  0  0
 19  5  1  0  0  0  0
 19 32  1  0  0  0  0
 20 17  1  0  0  0  0
 20 33  1  0  0  0  0
 20 34  1  0  0  0  0
 20 35  1  0  0  0  0
 21 22  1  0  0  0  0
 21 18  2  0  0  0  0
 21 36  1  0  0  0  0
 22 19  2  0  0  0  0
 22 37  1  0  0  0  0
M  END
>  <Mol_ID>
8607

>  <Formula>
C17H15NO4

>  <MolWeight>
297.3053

>  <Cat>
P2302

>  <Name>
WAY-324107

>  <Synonyms>
N/A

>  <Target>
PfENT1

>  <Form>
free base

>  <CAS>
618392-63-5

>  <URL>
N/A

$$$$
