WAY-642938
 OpenBabel08302521443D

 59 63  0  0  0  0  0  0  0  0999 V2000
   -0.0548   -1.2188    0.1349 N   0  0  0  0  0  0  0  0  0  0  0  0
    1.1105   -0.4707   -0.1353 C   0  0  0  0  0  0  0  0  0  0  0  0
    0.7522    0.7457   -0.5107 N   0  0  0  0  0  0  0  0  0  0  0  0
   -1.0914   -0.3511   -0.2103 C   0  0  0  0  0  0  0  0  0  0  0  0
   -0.6102    0.8216   -0.5499 N   0  0  0  0  0  0  0  0  0  0  0  0
   -5.9756    1.8144   -0.7088 N   0  0  0  0  0  0  0  0  0  0  0  0
   -0.0809   -2.5706    0.5952 C   0  0  0  0  0  0  0  0  0  0  0  0
   -5.1136    0.7536   -0.3095 C   0  0  0  0  0  0  0  0  0  0  0  0
   -7.3897    1.8351   -0.3502 C   0  0  0  0  0  0  0  0  0  0  0  0
    2.5197   -0.9047   -0.0821 C   0  0  0  0  0  0  0  0  0  0  0  0
   -2.7692   -0.7703   -0.3203 S   0  0  0  0  0  0  0  0  0  0  0  0
   -3.6086    0.8503   -0.6593 C   0  0  0  0  0  0  0  0  0  0  0  0
   -0.8423   -3.0521    1.6719 C   0  0  0  0  0  0  0  0  0  0  0  0
   -8.1896    2.9611   -0.6483 C   0  0  0  0  0  0  0  0  0  0  0  0
   -5.4994   -0.2326    0.3238 O   0  0  0  0  0  0  0  0  0  0  0  0
    4.6536   -1.0025   -1.2612 N   0  0  0  0  0  0  0  0  0  0  0  0
   -5.4177    3.1094   -1.1316 C   0  0  0  0  0  0  0  0  0  0  0  0
    3.3699   -0.5766   -1.1372 C   0  0  0  0  0  0  0  0  0  0  0  0
   -1.8051   -2.4519    2.4240 O   0  0  0  0  0  0  0  0  0  0  0  0
    0.8091   -3.4609   -0.0583 C   0  0  0  0  0  0  0  0  0  0  0  0
   -8.0280    0.7883    0.3372 C   0  0  0  0  0  0  0  0  0  0  0  0
    3.0759   -1.6801    0.9433 C   0  0  0  0  0  0  0  0  0  0  0  0
   -6.3179    3.9576   -2.0285 C   0  0  0  0  0  0  0  0  0  0  0  0
   -7.7213    4.1082   -1.4956 C   0  0  0  0  0  0  0  0  0  0  0  0
    5.1303   -1.7920   -0.2782 C   0  0  0  0  0  0  0  0  0  0  0  0
   -9.5099    3.0572   -0.1541 C   0  0  0  0  0  0  0  0  0  0  0  0
   -0.6517   -4.3942    2.0710 C   0  0  0  0  0  0  0  0  0  0  0  0
   -1.6553   -1.1327    2.9298 C   0  0  0  0  0  0  0  0  0  0  0  0
    4.3896   -2.1553    0.8328 C   0  0  0  0  0  0  0  0  0  0  0  0
   -9.3299    0.8973    0.8392 C   0  0  0  0  0  0  0  0  0  0  0  0
    1.0310   -4.7578    0.4019 C   0  0  0  0  0  0  0  0  0  0  0  0
   -0.9397   -1.0939    4.2639 C   0  0  0  0  0  0  0  0  0  0  0  0
  -10.0666    2.0452    0.6169 C   0  0  0  0  0  0  0  0  0  0  0  0
    0.2980   -5.2273    1.4753 C   0  0  0  0  0  0  0  0  0  0  0  0
   -3.1639    1.6463   -0.0539 H   0  0  0  0  0  0  0  0  0  0  0  0
   -3.4871    1.0561   -1.7252 H   0  0  0  0  0  0  0  0  0  0  0  0
   -4.4790    2.9567   -1.6693 H   0  0  0  0  0  0  0  0  0  0  0  0
   -5.1691    3.6570   -0.2144 H   0  0  0  0  0  0  0  0  0  0  0  0
    3.0265    0.0460   -1.9614 H   0  0  0  0  0  0  0  0  0  0  0  0
    1.3704   -3.1519   -0.9398 H   0  0  0  0  0  0  0  0  0  0  0  0
   -7.5446   -0.1590    0.5348 H   0  0  0  0  0  0  0  0  0  0  0  0
    2.4908   -1.9728    1.8109 H   0  0  0  0  0  0  0  0  0  0  0  0
   -5.8735    4.9542   -2.1430 H   0  0  0  0  0  0  0  0  0  0  0  0
   -6.3462    3.5185   -3.0302 H   0  0  0  0  0  0  0  0  0  0  0  0
   -7.8039    5.0320   -0.9110 H   0  0  0  0  0  0  0  0  0  0  0  0
   -8.4015    4.2187   -2.3527 H   0  0  0  0  0  0  0  0  0  0  0  0
    6.1521   -2.1382   -0.4116 H   0  0  0  0  0  0  0  0  0  0  0  0
  -10.1111    3.9392   -0.3693 H   0  0  0  0  0  0  0  0  0  0  0  0
   -1.2457   -4.7963    2.8915 H   0  0  0  0  0  0  0  0  0  0  0  0
   -1.1482   -0.4574    2.2510 H   0  0  0  0  0  0  0  0  0  0  0  0
   -2.6721   -0.7464    3.0671 H   0  0  0  0  0  0  0  0  0  0  0  0
    4.8148   -2.8035    1.5896 H   0  0  0  0  0  0  0  0  0  0  0  0
   -9.7472    0.0780    1.4197 H   0  0  0  0  0  0  0  0  0  0  0  0
    1.7763   -5.3869   -0.0789 H   0  0  0  0  0  0  0  0  0  0  0  0
   -1.4713   -1.6814    5.0176 H   0  0  0  0  0  0  0  0  0  0  0  0
    0.0724   -1.4983    4.1758 H   0  0  0  0  0  0  0  0  0  0  0  0
   -0.8726   -0.0573    4.6112 H   0  0  0  0  0  0  0  0  0  0  0  0
  -11.0667    2.1441    1.0292 H   0  0  0  0  0  0  0  0  0  0  0  0
    0.4494   -6.2397    1.8423 H   0  0  0  0  0  0  0  0  0  0  0  0
  2  1  1  0  0  0  0
  3  2  2  0  0  0  0
  3  5  1  0  0  0  0
  4  1  1  0  0  0  0
  5  4  2  0  0  0  0
  6  8  1  0  0  0  0
  7  1  1  0  0  0  0
  8 12  1  0  0  0  0
  9  6  1  0  0  0  0
 10  2  1  0  0  0  0
 11  4  1  0  0  0  0
 12 11  1  0  0  0  0
 12 35  1  0  0  0  0
 12 36  1  0  0  0  0
 13  7  2  0  0  0  0
 14  9  2  0  0  0  0
 15  8  2  0  0  0  0
 16 18  2  0  0  0  0
 17  6  1  0  0  0  0
 17 37  1  0  0  0  0
 17 38  1  0  0  0  0
 18 10  1  0  0  0  0
 18 39  1  0  0  0  0
 19 13  1  0  0  0  0
 20  7  1  0  0  0  0
 20 40  1  0  0  0  0
 21  9  1  0  0  0  0
 21 41  1  0  0  0  0
 22 10  2  0  0  0  0
 22 42  1  0  0  0  0
 23 17  1  0  0  0  0
 23 43  1  0  0  0  0
 23 44  1  0  0  0  0
 24 23  1  0  0  0  0
 24 14  1  0  0  0  0
 24 45  1  0  0  0  0
 24 46  1  0  0  0  0
 25 29  2  0  0  0  0
 25 16  1  0  0  0  0
 25 47  1  0  0  0  0
 26 14  1  0  0  0  0
 26 48  1  0  0  0  0
 27 13  1  0  0  0  0
 27 49  1  0  0  0  0
 28 19  1  0  0  0  0
 28 50  1  0  0  0  0
 28 51  1  0  0  0  0
 29 22  1  0  0  0  0
 29 52  1  0  0  0  0
 30 21  2  0  0  0  0
 30 53  1  0  0  0  0
 31 20  2  0  0  0  0
 31 54  1  0  0  0  0
 32 28  1  0  0  0  0
 32 55  1  0  0  0  0
 32 56  1  0  0  0  0
 32 57  1  0  0  0  0
 33 30  1  0  0  0  0
 33 26  2  0  0  0  0
 33 58  1  0  0  0  0
 34 31  1  0  0  0  0
 34 27  2  0  0  0  0
 34 59  1  0  0  0  0
M  END
>  <Mol_ID>
9184

>  <Formula>
C26H25N5O2S

>  <MolWeight>
471.574

>  <Cat>
P3125

>  <Name>
WAY-642938

>  <Synonyms>
N/A

>  <Target>
Others

>  <Form>
free base

>  <CAS>
851274-39-0

>  <URL>
N/A

$$$$
