WAY-326254
 OpenBabel08302521433D

 27 28  0  0  0  0  0  0  0  0999 V2000
   -0.2603   -1.2598    0.0553 N   0  0  0  0  0  0  0  0  0  0  0  0
   -0.4047    0.9490    0.1165 N   0  0  0  0  0  0  0  0  0  0  0  0
    1.0297   -0.8178    0.0032 N   0  0  0  0  0  0  0  0  0  0  0  0
    0.8888    0.5114    0.0334 C   0  0  0  0  0  0  0  0  0  0  0  0
   -1.1048   -0.1642    0.0816 C   0  0  0  0  0  0  0  0  0  0  0  0
   -0.5331   -2.6365    0.0887 C   0  0  0  0  0  0  0  0  0  0  0  0
    2.0519    1.4458   -0.0195 C   0  0  0  0  0  0  0  0  0  0  0  0
    3.3406    1.0861   -0.3140 O   0  0  0  0  0  0  0  0  0  0  0  0
   -2.8346   -0.2394    0.1599 S   0  0  0  0  0  0  0  0  0  0  0  0
    2.0018    2.8068    0.2167 C   0  0  0  0  0  0  0  0  0  0  0  0
   -1.6656   -3.0577   -0.1125 O   0  0  0  0  0  0  0  0  0  0  0  0
    4.0916    2.2168   -0.2899 C   0  0  0  0  0  0  0  0  0  0  0  0
    3.3198    3.3000    0.0551 C   0  0  0  0  0  0  0  0  0  0  0  0
    0.6677   -3.4852    0.4513 C   0  0  0  0  0  0  0  0  0  0  0  0
   -3.2514    1.5084    0.3486 C   0  0  0  0  0  0  0  0  0  0  0  0
    0.3318   -4.9669    0.4826 C   0  0  0  0  0  0  0  0  0  0  0  0
    1.1175    3.3659    0.4902 H   0  0  0  0  0  0  0  0  0  0  0  0
    5.1378    2.0866   -0.5303 H   0  0  0  0  0  0  0  0  0  0  0  0
    3.6637    4.3186    0.1711 H   0  0  0  0  0  0  0  0  0  0  0  0
    1.4794   -3.3222   -0.2639 H   0  0  0  0  0  0  0  0  0  0  0  0
    1.0027   -3.1819    1.4506 H   0  0  0  0  0  0  0  0  0  0  0  0
   -2.8487    1.9020    1.2861 H   0  0  0  0  0  0  0  0  0  0  0  0
   -2.8650    2.0960   -0.4893 H   0  0  0  0  0  0  0  0  0  0  0  0
   -4.3398    1.6165    0.3694 H   0  0  0  0  0  0  0  0  0  0  0  0
   -0.5290   -5.1663    1.1304 H   0  0  0  0  0  0  0  0  0  0  0  0
    0.0871   -5.3303   -0.5202 H   0  0  0  0  0  0  0  0  0  0  0  0
    1.1838   -5.5389    0.8589 H   0  0  0  0  0  0  0  0  0  0  0  0
  2  5  2  0  0  0  0
  2  4  1  0  0  0  0
  3  1  1  0  0  0  0
  4  3  2  0  0  0  0
  5  1  1  0  0  0  0
  6  1  1  0  0  0  0
  7  4  1  0  0  0  0
  8  7  1  0  0  0  0
  9  5  1  0  0  0  0
 10  7  2  0  0  0  0
 10 17  1  0  0  0  0
 11  6  2  0  0  0  0
 12  8  1  0  0  0  0
 12 13  2  0  0  0  0
 12 18  1  0  0  0  0
 13 10  1  0  0  0  0
 13 19  1  0  0  0  0
 14  6  1  0  0  0  0
 14 20  1  0  0  0  0
 14 21  1  0  0  0  0
 15  9  1  0  0  0  0
 15 22  1  0  0  0  0
 15 23  1  0  0  0  0
 15 24  1  0  0  0  0
 16 14  1  0  0  0  0
 16 25  1  0  0  0  0
 16 26  1  0  0  0  0
 16 27  1  0  0  0  0
M  END
>  <Mol_ID>
8903

>  <Formula>
C10H11N3O2S

>  <MolWeight>
237.27824

>  <Cat>
P2461

>  <Name>
WAY-326254

>  <Synonyms>
N/A

>  <Target>
thrombin

>  <Form>
free base

>  <CAS>
869872-23-1

>  <URL>
N/A

$$$$
