WAY-296631
 OpenBabel08302521403D

 27 28  0  0  0  0  0  0  0  0999 V2000
    3.5763   -0.3983   -0.8570 C   0  0  0  0  0  0  0  0  0  0  0  0
    4.6572   -0.0089    0.1172 C   0  0  0  0  0  0  0  0  0  0  0  0
    3.2696   -1.7403   -1.1256 C   0  0  0  0  0  0  0  0  0  0  0  0
    2.8248    0.6048   -1.4955 C   0  0  0  0  0  0  0  0  0  0  0  0
    5.2151    1.2453   -0.1355 N   0  0  0  0  0  0  0  0  0  0  0  0
    5.1383   -0.9614    1.4182 S   0  0  0  0  0  0  0  0  0  0  0  0
    2.2391   -2.0718   -2.0180 C   0  0  0  0  0  0  0  0  0  0  0  0
    1.7953    0.2747   -2.3811 C   0  0  0  0  0  0  0  0  0  0  0  0
    5.2689    2.2762    0.9072 C   0  0  0  0  0  0  0  0  0  0  0  0
    6.3661    1.3184   -1.0412 C   0  0  0  0  0  0  0  0  0  0  0  0
    1.5086   -1.0653   -2.6359 C   0  0  0  0  0  0  0  0  0  0  0  0
    5.3720    3.6547    0.2442 C   0  0  0  0  0  0  0  0  0  0  0  0
    6.4515    2.7188   -1.6534 C   0  0  0  0  0  0  0  0  0  0  0  0
    0.1160   -1.5144   -3.8324 Br  0  0  0  0  0  0  0  0  0  0  0  0
    6.5117    3.7294   -0.6316 O   0  0  0  0  0  0  0  0  0  0  0  0
    3.8254   -2.5470   -0.6556 H   0  0  0  0  0  0  0  0  0  0  0  0
    3.0179    1.6558   -1.2955 H   0  0  0  0  0  0  0  0  0  0  0  0
    2.0180   -3.1184   -2.2086 H   0  0  0  0  0  0  0  0  0  0  0  0
    1.2182    1.0650   -2.8565 H   0  0  0  0  0  0  0  0  0  0  0  0
    6.1512    2.0861    1.5296 H   0  0  0  0  0  0  0  0  0  0  0  0
    4.3744    2.2091    1.5350 H   0  0  0  0  0  0  0  0  0  0  0  0
    7.2635    1.1152   -0.4407 H   0  0  0  0  0  0  0  0  0  0  0  0
    6.2961    0.5430   -1.8110 H   0  0  0  0  0  0  0  0  0  0  0  0
    4.4684    3.8759   -0.3377 H   0  0  0  0  0  0  0  0  0  0  0  0
    5.4805    4.4336    1.0048 H   0  0  0  0  0  0  0  0  0  0  0  0
    7.3536    2.8088   -2.2666 H   0  0  0  0  0  0  0  0  0  0  0  0
    5.5833    2.9143   -2.2946 H   0  0  0  0  0  0  0  0  0  0  0  0
  1  2  1  0  0  0  0
  1  3  2  0  0  0  0
  1  4  1  0  0  0  0
  2  5  1  0  0  0  0
  2  6  2  0  0  0  0
  3  7  1  0  0  0  0
  3 16  1  0  0  0  0
  4  8  2  0  0  0  0
  4 17  1  0  0  0  0
  5  9  1  0  0  0  0
  5 10  1  0  0  0  0
  7 11  2  0  0  0  0
  7 18  1  0  0  0  0
  8 11  1  0  0  0  0
  8 19  1  0  0  0  0
  9 12  1  0  0  0  0
  9 20  1  0  0  0  0
  9 21  1  0  0  0  0
 10 13  1  0  0  0  0
 10 22  1  0  0  0  0
 10 23  1  0  0  0  0
 11 14  1  0  0  0  0
 12 15  1  0  0  0  0
 12 24  1  0  0  0  0
 12 25  1  0  0  0  0
 13 15  1  0  0  0  0
 13 26  1  0  0  0  0
 13 27  1  0  0  0  0
M  END
>  <Mol_ID>
8332

>  <Formula>
C11H12BrNOS

>  <MolWeight>
286.18808

>  <Cat>
P2087

>  <Name>
WAY-296631

>  <Synonyms>
N/A

>  <Target>
monoglyceride lipase

>  <Form>
free base

>  <CAS>
61750-21-8

>  <URL>
N/A

$$$$
