WAY-324340
 OpenBabel08302521423D

 41 44  0  0  0  0  0  0  0  0999 V2000
    0.0315   -1.9314   -0.4539 C   0  0  0  0  0  0  0  0  0  0  0  0
   -0.1059   -3.3325   -0.6869 C   0  0  0  0  0  0  0  0  0  0  0  0
    1.1955   -1.2581   -0.3283 C   0  0  0  0  0  0  0  0  0  0  0  0
    1.0135    0.1330   -0.1003 N   0  0  0  0  0  0  0  0  0  0  0  0
   -0.3493    0.5142   -0.0224 C   0  0  0  0  0  0  0  0  0  0  0  0
   -1.3491   -0.9379   -0.1119 S   0  0  0  0  0  0  0  0  0  0  0  0
    0.6700   -4.3624   -0.3799 N   0  0  0  0  0  0  0  0  0  0  0  0
   -1.2239   -3.8196   -1.3462 N   0  0  0  0  0  0  0  0  0  0  0  0
   -1.4142   -5.1115   -0.9179 C   0  0  0  0  0  0  0  0  0  0  0  0
   -0.1446   -5.4763   -0.4868 C   0  0  0  0  0  0  0  0  0  0  0  0
    2.0931    1.0937   -0.0961 C   0  0  0  0  0  0  0  0  0  0  0  0
   -1.0982    2.0115    0.0031 S   0  0  0  0  0  0  0  0  0  0  0  0
    2.4413   -1.8757   -0.3619 N   0  0  0  0  0  0  0  0  0  0  0  0
    3.2055    0.9227   -0.9370 C   0  0  0  0  0  0  0  0  0  0  0  0
    2.0818    2.2333    0.7199 C   0  0  0  0  0  0  0  0  0  0  0  0
   -1.7860   -3.3006   -2.5736 C   0  0  0  0  0  0  0  0  0  0  0  0
    4.2276    2.9693   -0.1462 C   0  0  0  0  0  0  0  0  0  0  0  0
    3.1230    3.1715    0.6759 C   0  0  0  0  0  0  0  0  0  0  0  0
    4.2646    1.8426   -0.9597 C   0  0  0  0  0  0  0  0  0  0  0  0
   -2.5132   -5.9773   -0.9274 C   0  0  0  0  0  0  0  0  0  0  0  0
    0.1011   -6.8278   -0.2056 C   0  0  0  0  0  0  0  0  0  0  0  0
    5.1810    3.9474   -0.1066 O   0  0  0  0  0  0  0  0  0  0  0  0
    6.5077    3.5247   -0.4039 C   0  0  0  0  0  0  0  0  0  0  0  0
   -2.2838   -7.2752   -0.4652 C   0  0  0  0  0  0  0  0  0  0  0  0
   -0.9913   -7.7105   -0.1613 C   0  0  0  0  0  0  0  0  0  0  0  0
    3.0707   -1.4727    0.3383 H   0  0  0  0  0  0  0  0  0  0  0  0
    2.3523   -2.8906   -0.2239 H   0  0  0  0  0  0  0  0  0  0  0  0
    3.2521    0.0880   -1.6336 H   0  0  0  0  0  0  0  0  0  0  0  0
    1.2823    2.4181    1.4307 H   0  0  0  0  0  0  0  0  0  0  0  0
   -1.3060   -3.8395   -3.3985 H   0  0  0  0  0  0  0  0  0  0  0  0
   -2.8626   -3.4765   -2.5835 H   0  0  0  0  0  0  0  0  0  0  0  0
   -1.5713   -2.2380   -2.6834 H   0  0  0  0  0  0  0  0  0  0  0  0
    3.0727    4.0608    1.3006 H   0  0  0  0  0  0  0  0  0  0  0  0
    5.0839    1.6650   -1.6481 H   0  0  0  0  0  0  0  0  0  0  0  0
   -3.5044   -5.6476   -1.2204 H   0  0  0  0  0  0  0  0  0  0  0  0
    1.1036   -7.1723    0.0179 H   0  0  0  0  0  0  0  0  0  0  0  0
    6.8026    2.6789    0.2269 H   0  0  0  0  0  0  0  0  0  0  0  0
    6.6236    3.2834   -1.4651 H   0  0  0  0  0  0  0  0  0  0  0  0
    7.1803    4.3587   -0.1806 H   0  0  0  0  0  0  0  0  0  0  0  0
   -3.1235   -7.9597   -0.3544 H   0  0  0  0  0  0  0  0  0  0  0  0
   -0.8326   -8.7443    0.1365 H   0  0  0  0  0  0  0  0  0  0  0  0
  2  1  1  0  0  0  0
  3  1  2  0  0  0  0
  4  3  1  0  0  0  0
  5  6  1  0  0  0  0
  5  4  1  0  0  0  0
  6  1  1  0  0  0  0
  7  2  2  0  0  0  0
  8  2  1  0  0  0  0
  9  8  1  0  0  0  0
  9 10  2  0  0  0  0
 10  7  1  0  0  0  0
 11  4  1  0  0  0  0
 12  5  2  0  0  0  0
 13  3  1  0  0  0  0
 13 26  1  0  0  0  0
 13 27  1  0  0  0  0
 14 11  2  0  0  0  0
 14 28  1  0  0  0  0
 15 11  1  0  0  0  0
 15 29  1  0  0  0  0
 16  8  1  0  0  0  0
 16 30  1  0  0  0  0
 16 31  1  0  0  0  0
 16 32  1  0  0  0  0
 17 18  1  0  0  0  0
 18 15  2  0  0  0  0
 18 33  1  0  0  0  0
 19 14  1  0  0  0  0
 19 17  2  0  0  0  0
 19 34  1  0  0  0  0
 20  9  1  0  0  0  0
 20 35  1  0  0  0  0
 21 10  1  0  0  0  0
 21 36  1  0  0  0  0
 22 17  1  0  0  0  0
 23 22  1  0  0  0  0
 23 37  1  0  0  0  0
 23 38  1  0  0  0  0
 23 39  1  0  0  0  0
 24 20  2  0  0  0  0
 24 40  1  0  0  0  0
 25 21  2  0  0  0  0
 25 24  1  0  0  0  0
 25 41  1  0  0  0  0
M  END
>  <Mol_ID>
8620

>  <Formula>
C18H16N4OS2

>  <MolWeight>
368.47584

>  <Cat>
P2317

>  <Name>
WAY-324340

>  <Synonyms>
N/A

>  <Target>
Mcl-1

>  <Form>
free base

>  <CAS>
618073-56-6

>  <URL>
N/A

$$$$
