WAY-324335
 OpenBabel08302521423D

 39 41  0  0  0  0  0  0  0  0999 V2000
    1.8343   -3.7403   -0.9989 N   0  0  0  0  0  0  0  0  0  0  0  0
    1.5082   -4.6744   -1.9639 C   0  0  0  0  0  0  0  0  0  0  0  0
    2.8615   -5.1966   -2.5083 C   0  0  0  0  0  0  0  0  0  0  0  0
    3.8867   -4.5112   -1.7192 C   0  0  0  0  0  0  0  0  0  0  0  0
    3.2273   -3.6562   -0.8341 C   0  0  0  0  0  0  0  0  0  0  0  0
   -1.1236   -5.3298    2.0196 C   0  0  0  0  0  0  0  0  0  0  0  0
    0.4679   -3.7304    1.0483 C   0  0  0  0  0  0  0  0  0  0  0  0
   -0.5890   -4.6199    0.9136 N   0  0  0  0  0  0  0  0  0  0  0  0
    0.8446   -3.0087   -0.2463 C   0  0  0  0  0  0  0  0  0  0  0  0
    0.4045   -5.0457   -2.3052 O   0  0  0  0  0  0  0  0  0  0  0  0
    3.0314   -5.9995   -3.3965 O   0  0  0  0  0  0  0  0  0  0  0  0
    1.1319   -3.5619    2.0704 O   0  0  0  0  0  0  0  0  0  0  0  0
   -1.6849   -4.6460    3.1239 C   0  0  0  0  0  0  0  0  0  0  0  0
   -1.1576   -6.7422    1.9797 C   0  0  0  0  0  0  0  0  0  0  0  0
    5.2621   -4.6380   -1.7711 C   0  0  0  0  0  0  0  0  0  0  0  0
    3.9540   -2.8779    0.0486 C   0  0  0  0  0  0  0  0  0  0  0  0
   -2.2937   -6.7785    4.1302 C   0  0  0  0  0  0  0  0  0  0  0  0
   -1.7515   -7.4492    3.0400 C   0  0  0  0  0  0  0  0  0  0  0  0
   -2.2585   -5.3891    4.1717 C   0  0  0  0  0  0  0  0  0  0  0  0
   -0.5122   -7.5398    0.8783 C   0  0  0  0  0  0  0  0  0  0  0  0
   -1.7782   -3.1453    3.2064 C   0  0  0  0  0  0  0  0  0  0  0  0
    6.0000   -3.8577   -0.8794 C   0  0  0  0  0  0  0  0  0  0  0  0
    5.3529   -2.9855    0.0173 C   0  0  0  0  0  0  0  0  0  0  0  0
   -0.6465   -5.0786    0.0073 H   0  0  0  0  0  0  0  0  0  0  0  0
    1.2121   -2.0067   -0.0048 H   0  0  0  0  0  0  0  0  0  0  0  0
   -0.0563   -2.8832   -0.8583 H   0  0  0  0  0  0  0  0  0  0  0  0
    5.7367   -5.3119   -2.4683 H   0  0  0  0  0  0  0  0  0  0  0  0
    3.4783   -2.2080    0.7563 H   0  0  0  0  0  0  0  0  0  0  0  0
   -2.7395   -7.3372    4.9489 H   0  0  0  0  0  0  0  0  0  0  0  0
   -1.7759   -8.5372    3.0325 H   0  0  0  0  0  0  0  0  0  0  0  0
   -2.6988   -4.8823    5.0283 H   0  0  0  0  0  0  0  0  0  0  0  0
   -1.0854   -7.4601   -0.0489 H   0  0  0  0  0  0  0  0  0  0  0  0
    0.5149   -7.1982    0.7133 H   0  0  0  0  0  0  0  0  0  0  0  0
   -0.4485   -8.6017    1.1462 H   0  0  0  0  0  0  0  0  0  0  0  0
   -0.7913   -2.6819    3.2344 H   0  0  0  0  0  0  0  0  0  0  0  0
   -2.3518   -2.7520    2.3614 H   0  0  0  0  0  0  0  0  0  0  0  0
   -2.2902   -2.8276    4.1221 H   0  0  0  0  0  0  0  0  0  0  0  0
    7.0879   -3.9245   -0.8736 H   0  0  0  0  0  0  0  0  0  0  0  0
    5.9506   -2.3867    0.7044 H   0  0  0  0  0  0  0  0  0  0  0  0
  2  1  1  0  0  0  0
  3  2  1  0  0  0  0
  3  4  1  0  0  0  0
  4  5  2  0  0  0  0
  5  1  1  0  0  0  0
  6  8  1  0  0  0  0
  7  9  1  0  0  0  0
  8  7  1  0  0  0  0
  8 24  1  0  0  0  0
  9  1  1  0  0  0  0
  9 25  1  0  0  0  0
  9 26  1  0  0  0  0
 10  2  2  0  0  0  0
 11  3  2  0  0  0  0
 12  7  2  0  0  0  0
 13  6  2  0  0  0  0
 14  6  1  0  0  0  0
 15  4  1  0  0  0  0
 15 22  2  0  0  0  0
 15 27  1  0  0  0  0
 16  5  1  0  0  0  0
 16 28  1  0  0  0  0
 17 18  1  0  0  0  0
 17 29  1  0  0  0  0
 18 14  2  0  0  0  0
 18 30  1  0  0  0  0
 19 13  1  0  0  0  0
 19 17  2  0  0  0  0
 19 31  1  0  0  0  0
 20 14  1  0  0  0  0
 20 32  1  0  0  0  0
 20 33  1  0  0  0  0
 20 34  1  0  0  0  0
 21 13  1  0  0  0  0
 21 35  1  0  0  0  0
 21 36  1  0  0  0  0
 21 37  1  0  0  0  0
 22 23  1  0  0  0  0
 22 38  1  0  0  0  0
 23 16  2  0  0  0  0
 23 39  1  0  0  0  0
M  END
>  <Mol_ID>
8619

>  <Formula>
C18H16N2O3

>  <MolWeight>
308.33124

>  <Cat>
P2316

>  <Name>
WAY-324335

>  <Synonyms>
N/A

>  <Target>
others

>  <Form>
free base

>  <CAS>
617697-23-1

>  <URL>
N/A

$$$$
