WAY-638861
 OpenBabel08302521433D

 35 37  0  0  0  0  0  0  0  0999 V2000
   -0.4277    1.2375    0.0516 C   0  0  0  0  0  0  0  0  0  0  0  0
    0.9163    0.7416    0.0312 C   0  0  0  0  0  0  0  0  0  0  0  0
    0.9185   -0.6059   -0.0021 N   0  0  0  0  0  0  0  0  0  0  0  0
   -0.3739   -0.9615    0.0943 N   0  0  0  0  0  0  0  0  0  0  0  0
   -1.2186    0.1052    0.1388 C   0  0  0  0  0  0  0  0  0  0  0  0
   -0.9103    2.5976   -0.0078 C   0  0  0  0  0  0  0  0  0  0  0  0
    2.1934    1.4697    0.0836 C   0  0  0  0  0  0  0  0  0  0  0  0
   -0.3414    3.5521   -0.5135 O   0  0  0  0  0  0  0  0  0  0  0  0
   -0.7483   -2.3714    0.0379 C   0  0  0  0  0  0  0  0  0  0  0  0
   -2.1193    2.7832    0.5795 O   0  0  0  0  0  0  0  0  0  0  0  0
   -0.8524   -2.9993    1.4067 C   0  0  0  0  0  0  0  0  0  0  0  0
    2.3039    2.7151    0.7181 C   0  0  0  0  0  0  0  0  0  0  0  0
    3.3599    0.8902   -0.4421 C   0  0  0  0  0  0  0  0  0  0  0  0
   -2.0635   -3.5537    1.8473 C   0  0  0  0  0  0  0  0  0  0  0  0
    0.2681   -3.0739    2.2493 C   0  0  0  0  0  0  0  0  0  0  0  0
    4.5933    1.5409   -0.3423 C   0  0  0  0  0  0  0  0  0  0  0  0
    3.5332    3.3755    0.8022 C   0  0  0  0  0  0  0  0  0  0  0  0
    0.1717   -3.6610    3.5119 C   0  0  0  0  0  0  0  0  0  0  0  0
   -2.1573   -4.1420    3.1107 C   0  0  0  0  0  0  0  0  0  0  0  0
   -1.0419   -4.1902    3.9444 C   0  0  0  0  0  0  0  0  0  0  0  0
    4.6783    2.7855    0.2776 C   0  0  0  0  0  0  0  0  0  0  0  0
   -2.2921   -0.0146    0.2013 H   0  0  0  0  0  0  0  0  0  0  0  0
   -1.7032   -2.4248   -0.4979 H   0  0  0  0  0  0  0  0  0  0  0  0
   -0.0024   -2.8980   -0.5693 H   0  0  0  0  0  0  0  0  0  0  0  0
   -2.2561    3.7466    0.4796 H   0  0  0  0  0  0  0  0  0  0  0  0
    1.4443    3.1928    1.1758 H   0  0  0  0  0  0  0  0  0  0  0  0
    3.3152   -0.0862   -0.9212 H   0  0  0  0  0  0  0  0  0  0  0  0
   -2.9463   -3.5349    1.2117 H   0  0  0  0  0  0  0  0  0  0  0  0
    1.2258   -2.6660    1.9272 H   0  0  0  0  0  0  0  0  0  0  0  0
    5.4873    1.0702   -0.7422 H   0  0  0  0  0  0  0  0  0  0  0  0
    3.5912    4.3450    1.2891 H   0  0  0  0  0  0  0  0  0  0  0  0
    1.0454   -3.7020    4.1575 H   0  0  0  0  0  0  0  0  0  0  0  0
   -3.1017   -4.5632    3.4463 H   0  0  0  0  0  0  0  0  0  0  0  0
   -1.1170   -4.6414    4.9303 H   0  0  0  0  0  0  0  0  0  0  0  0
    5.6364    3.2907    0.3599 H   0  0  0  0  0  0  0  0  0  0  0  0
  2  1  1  0  0  0  0
  3  2  2  0  0  0  0
  3  4  1  0  0  0  0
  4  5  1  0  0  0  0
  5  1  2  0  0  0  0
  5 22  1  0  0  0  0
  6  1  1  0  0  0  0
  7  2  1  0  0  0  0
  8  6  2  0  0  0  0
  9  4  1  0  0  0  0
  9 23  1  0  0  0  0
  9 24  1  0  0  0  0
 10  6  1  0  0  0  0
 10 25  1  0  0  0  0
 11  9  1  0  0  0  0
 12  7  2  0  0  0  0
 12 26  1  0  0  0  0
 13  7  1  0  0  0  0
 13 27  1  0  0  0  0
 14 11  2  0  0  0  0
 14 28  1  0  0  0  0
 15 11  1  0  0  0  0
 15 29  1  0  0  0  0
 16 13  2  0  0  0  0
 16 30  1  0  0  0  0
 17 12  1  0  0  0  0
 17 31  1  0  0  0  0
 18 15  2  0  0  0  0
 18 32  1  0  0  0  0
 19 14  1  0  0  0  0
 19 33  1  0  0  0  0
 20 18  1  0  0  0  0
 20 19  2  0  0  0  0
 20 34  1  0  0  0  0
 21 16  1  0  0  0  0
 21 17  2  0  0  0  0
 21 35  1  0  0  0  0
M  END
>  <Mol_ID>
8794

>  <Formula>
C17H14N2O2

>  <MolWeight>
278.30526

>  <Cat>
P3058

>  <Name>
WAY-638861

>  <Synonyms>
N/A

>  <Target>
FXR,diacylglycerol acyltransferase

>  <Form>
free base

>  <CAS>
905589-98-2

>  <URL>
N/A

$$$$
