WAY-322368
 OpenBabel08302521413D

 55 58  0  0  0  0  0  0  0  0999 V2000
    0.7816    0.2657    0.0864 C   0  0  0  0  0  0  0  0  0  0  0  0
    1.2954   -0.9291   -0.3295 C   0  0  0  0  0  0  0  0  0  0  0  0
    2.5823   -1.1523   -0.6805 N   0  0  0  0  0  0  0  0  0  0  0  0
    1.7121    1.3253    0.4104 C   0  0  0  0  0  0  0  0  0  0  0  0
    3.0599    0.9746    0.3098 N   0  0  0  0  0  0  0  0  0  0  0  0
    3.3981   -0.1802   -0.4101 C   0  0  0  0  0  0  0  0  0  0  0  0
    0.0907   -2.1376   -0.4151 S   0  0  0  0  0  0  0  0  0  0  0  0
   -0.6423    0.2837    0.0343 C   0  0  0  0  0  0  0  0  0  0  0  0
   -1.1392   -0.9976   -0.0984 C   0  0  0  0  0  0  0  0  0  0  0  0
    3.3422   -1.3048   -4.5964 N   0  0  0  0  0  0  0  0  0  0  0  0
    4.2430   -0.6818   -3.7199 C   0  0  0  0  0  0  0  0  0  0  0  0
    5.0359   -0.3392   -1.0244 S   0  0  0  0  0  0  0  0  0  0  0  0
    1.3087    2.4447    0.7388 O   0  0  0  0  0  0  0  0  0  0  0  0
    4.7899   -1.4275   -2.4937 C   0  0  0  0  0  0  0  0  0  0  0  0
    2.9509   -0.5676   -5.8015 C   0  0  0  0  0  0  0  0  0  0  0  0
    2.4401   -2.4184   -4.2830 C   0  0  0  0  0  0  0  0  0  0  0  0
    4.7053    0.4336   -3.9948 O   0  0  0  0  0  0  0  0  0  0  0  0
    4.0129    1.9817    0.7929 C   0  0  0  0  0  0  0  0  0  0  0  0
    4.7439    1.6167    2.0585 C   0  0  0  0  0  0  0  0  0  0  0  0
    4.6946    0.5548    2.8643 C   0  0  0  0  0  0  0  0  0  0  0  0
   -1.5336    1.4871    0.1255 C   0  0  0  0  0  0  0  0  0  0  0  0
    2.8231   -1.4743   -7.0250 C   0  0  0  0  0  0  0  0  0  0  0  0
    2.3253   -3.4004   -5.4615 C   0  0  0  0  0  0  0  0  0  0  0  0
   -2.5935   -1.3628   -0.0586 C   0  0  0  0  0  0  0  0  0  0  0  0
    1.9392   -2.7021   -6.7769 C   0  0  0  0  0  0  0  0  0  0  0  0
    2.0320   -3.6589   -7.9740 C   0  0  0  0  0  0  0  0  0  0  0  0
   -2.9707    1.1428   -0.2946 C   0  0  0  0  0  0  0  0  0  0  0  0
   -3.4409   -0.1528    0.3793 C   0  0  0  0  0  0  0  0  0  0  0  0
    5.7992   -1.7503   -2.7812 H   0  0  0  0  0  0  0  0  0  0  0  0
    4.2472   -2.3294   -2.2265 H   0  0  0  0  0  0  0  0  0  0  0  0
    1.9941   -0.0758   -5.5875 H   0  0  0  0  0  0  0  0  0  0  0  0
    3.6740    0.2207   -6.0344 H   0  0  0  0  0  0  0  0  0  0  0  0
    1.4534   -1.9789   -4.0832 H   0  0  0  0  0  0  0  0  0  0  0  0
    2.7368   -2.9490   -3.3791 H   0  0  0  0  0  0  0  0  0  0  0  0
    4.7243    2.2289    0.0129 H   0  0  0  0  0  0  0  0  0  0  0  0
    3.4808    2.9121    1.0343 H   0  0  0  0  0  0  0  0  0  0  0  0
    5.4431    2.4162    2.3841 H   0  0  0  0  0  0  0  0  0  0  0  0
    4.0491   -0.2993    2.6795 H   0  0  0  0  0  0  0  0  0  0  0  0
    5.3171    0.5038    3.7561 H   0  0  0  0  0  0  0  0  0  0  0  0
   -1.1560    2.2774   -0.5347 H   0  0  0  0  0  0  0  0  0  0  0  0
   -1.5226    1.8727    1.1498 H   0  0  0  0  0  0  0  0  0  0  0  0
    3.8260   -1.8019   -7.3273 H   0  0  0  0  0  0  0  0  0  0  0  0
    2.4159   -0.8927   -7.8614 H   0  0  0  0  0  0  0  0  0  0  0  0
    1.5739   -4.1646   -5.2257 H   0  0  0  0  0  0  0  0  0  0  0  0
    3.2818   -3.9220   -5.5883 H   0  0  0  0  0  0  0  0  0  0  0  0
   -2.9075   -1.6849   -1.0574 H   0  0  0  0  0  0  0  0  0  0  0  0
   -2.7683   -2.1948    0.6332 H   0  0  0  0  0  0  0  0  0  0  0  0
    0.8955   -2.3705   -6.6965 H   0  0  0  0  0  0  0  0  0  0  0  0
    1.6642   -3.1748   -8.8862 H   0  0  0  0  0  0  0  0  0  0  0  0
    3.0670   -3.9681   -8.1606 H   0  0  0  0  0  0  0  0  0  0  0  0
    1.4351   -4.5624   -7.8128 H   0  0  0  0  0  0  0  0  0  0  0  0
   -3.0222    1.0197   -1.3846 H   0  0  0  0  0  0  0  0  0  0  0  0
   -3.6366    1.9736   -0.0359 H   0  0  0  0  0  0  0  0  0  0  0  0
   -4.4943   -0.3395    0.1460 H   0  0  0  0  0  0  0  0  0  0  0  0
   -3.3712   -0.0292    1.4672 H   0  0  0  0  0  0  0  0  0  0  0  0
  2  1  2  0  0  0  0
  3  2  1  0  0  0  0
  3  6  2  0  0  0  0
  4  1  1  0  0  0  0
  5  4  1  0  0  0  0
  6  5  1  0  0  0  0
  7  2  1  0  0  0  0
  8  1  1  0  0  0  0
  9  8  2  0  0  0  0
  9  7  1  0  0  0  0
 10 11  1  0  0  0  0
 11 14  1  0  0  0  0
 12  6  1  0  0  0  0
 13  4  2  0  0  0  0
 14 12  1  0  0  0  0
 14 29  1  0  0  0  0
 14 30  1  0  0  0  0
 15 10  1  0  0  0  0
 15 31  1  0  0  0  0
 15 32  1  0  0  0  0
 16 10  1  0  0  0  0
 16 33  1  0  0  0  0
 16 34  1  0  0  0  0
 17 11  2  0  0  0  0
 18  5  1  0  0  0  0
 18 35  1  0  0  0  0
 18 36  1  0  0  0  0
 19 18  1  0  0  0  0
 19 37  1  0  0  0  0
 20 19  2  0  0  0  0
 20 38  1  0  0  0  0
 20 39  1  0  0  0  0
 21  8  1  0  0  0  0
 21 40  1  0  0  0  0
 21 41  1  0  0  0  0
 22 15  1  0  0  0  0
 22 42  1  0  0  0  0
 22 43  1  0  0  0  0
 23 16  1  0  0  0  0
 23 44  1  0  0  0  0
 23 45  1  0  0  0  0
 24  9  1  0  0  0  0
 24 28  1  0  0  0  0
 24 46  1  0  0  0  0
 24 47  1  0  0  0  0
 25 23  1  0  0  0  0
 25 22  1  0  0  0  0
 25 48  1  0  0  0  0
 26 25  1  0  0  0  0
 26 49  1  0  0  0  0
 26 50  1  0  0  0  0
 26 51  1  0  0  0  0
 27 21  1  0  0  0  0
 27 52  1  0  0  0  0
 27 53  1  0  0  0  0
 28 27  1  0  0  0  0
 28 54  1  0  0  0  0
 28 55  1  0  0  0  0
M  END
>  <Mol_ID>
8445

>  <Formula>
C21H27N3O2S2

>  <MolWeight>
417.58798

>  <Cat>
P2250

>  <Name>
WAY-322368

>  <Synonyms>
N/A

>  <Target>
Anti-infection

>  <Form>
free base

>  <CAS>
379242-09-8

>  <URL>
N/A

$$$$
