WAY-311562
 OpenBabel08302521393D

 49 53  0  0  0  0  0  0  0  0999 V2000
    2.5258   -1.1851    0.4559 N   0  0  0  0  0  0  0  0  0  0  0  0
    2.5684    0.1892    0.3826 C   0  0  0  0  0  0  0  0  0  0  0  0
    3.6814   -1.9922    0.4064 C   0  0  0  0  0  0  0  0  0  0  0  0
    1.3284   -1.8709    0.6818 C   0  0  0  0  0  0  0  0  0  0  0  0
    1.5144    0.9380    0.5386 N   0  0  0  0  0  0  0  0  0  0  0  0
    3.8694    0.9001    0.0139 C   0  0  0  0  0  0  0  0  0  0  0  0
    3.6753   -3.0569   -0.4899 C   0  0  0  0  0  0  0  0  0  0  0  0
    4.7060   -1.7643    1.2557 N   0  0  0  0  0  0  0  0  0  0  0  0
    0.1123   -1.0651    0.6439 C   0  0  0  0  0  0  0  0  0  0  0  0
    1.2090   -3.0759    0.9053 O   0  0  0  0  0  0  0  0  0  0  0  0
    0.2601    0.3163    0.6668 C   0  0  0  0  0  0  0  0  0  0  0  0
    3.8991    1.4581   -1.4356 C   0  0  0  0  0  0  0  0  0  0  0  0
    4.7188   -3.9720   -0.4862 C   0  0  0  0  0  0  0  0  0  0  0  0
    5.7098   -2.6725    1.2565 C   0  0  0  0  0  0  0  0  0  0  0  0
   -1.1363   -1.6783    0.4890 C   0  0  0  0  0  0  0  0  0  0  0  0
   -0.8949    1.0965    0.6439 C   0  0  0  0  0  0  0  0  0  0  0  0
    4.8358    2.6042   -1.5586 N   0  0  0  0  0  0  0  0  0  0  0  0
    5.7591   -3.7780    0.4174 C   0  0  0  0  0  0  0  0  0  0  0  0
    4.6775   -5.1286   -1.4323 C   0  0  0  0  0  0  0  0  0  0  0  0
   -2.2648   -0.8836    0.3385 C   0  0  0  0  0  0  0  0  0  0  0  0
   -2.1480    0.5023    0.4465 C   0  0  0  0  0  0  0  0  0  0  0  0
    4.4617    3.5763   -0.6816 C   0  0  0  0  0  0  0  0  0  0  0  0
    4.9994    3.2403   -2.7749 C   0  0  0  0  0  0  0  0  0  0  0  0
    3.6758    4.5042   -1.4435 C   0  0  0  0  0  0  0  0  0  0  0  0
    4.9008    3.8148    0.4252 O   0  0  0  0  0  0  0  0  0  0  0  0
    4.2588    4.5424   -2.6820 C   0  0  0  0  0  0  0  0  0  0  0  0
    5.5602    2.8683   -3.7895 O   0  0  0  0  0  0  0  0  0  0  0  0
    2.4499    5.0546   -1.1818 C   0  0  0  0  0  0  0  0  0  0  0  0
    3.9010    5.5254   -3.5775 C   0  0  0  0  0  0  0  0  0  0  0  0
    1.9794    5.9559   -2.1249 C   0  0  0  0  0  0  0  0  0  0  0  0
    2.7647    6.2818   -3.2520 C   0  0  0  0  0  0  0  0  0  0  0  0
    3.9299    1.7036    0.7530 H   0  0  0  0  0  0  0  0  0  0  0  0
    4.7692    0.3088    0.1566 H   0  0  0  0  0  0  0  0  0  0  0  0
    2.8385   -3.1842   -1.1703 H   0  0  0  0  0  0  0  0  0  0  0  0
    4.1376    0.6842   -2.1752 H   0  0  0  0  0  0  0  0  0  0  0  0
    2.8930    1.8215   -1.7079 H   0  0  0  0  0  0  0  0  0  0  0  0
    6.4958   -2.4937    1.9868 H   0  0  0  0  0  0  0  0  0  0  0  0
   -1.2146   -2.7622    0.4245 H   0  0  0  0  0  0  0  0  0  0  0  0
   -0.8136    2.1776    0.7136 H   0  0  0  0  0  0  0  0  0  0  0  0
    6.5860   -4.4767    0.4821 H   0  0  0  0  0  0  0  0  0  0  0  0
    5.4512   -5.0177   -2.1963 H   0  0  0  0  0  0  0  0  0  0  0  0
    4.8108   -6.0689   -0.8913 H   0  0  0  0  0  0  0  0  0  0  0  0
    3.7076   -5.1808   -1.9420 H   0  0  0  0  0  0  0  0  0  0  0  0
   -3.2254   -1.3427    0.1212 H   0  0  0  0  0  0  0  0  0  0  0  0
   -3.0298    1.1274    0.3325 H   0  0  0  0  0  0  0  0  0  0  0  0
    1.8671    4.7297   -0.3264 H   0  0  0  0  0  0  0  0  0  0  0  0
    4.4602    5.7065   -4.4879 H   0  0  0  0  0  0  0  0  0  0  0  0
    0.9991    6.4064   -1.9916 H   0  0  0  0  0  0  0  0  0  0  0  0
    2.4443    7.0946   -3.9001 H   0  0  0  0  0  0  0  0  0  0  0  0
  1  2  1  0  0  0  0
  1  3  1  0  0  0  0
  1  4  1  0  0  0  0
  2  5  2  0  0  0  0
  2  6  1  0  0  0  0
  3  7  2  0  0  0  0
  3  8  1  0  0  0  0
  4  9  1  0  0  0  0
  4 10  2  0  0  0  0
  5 11  1  0  0  0  0
  6 12  1  0  0  0  0
  6 32  1  0  0  0  0
  6 33  1  0  0  0  0
  7 13  1  0  0  0  0
  7 34  1  0  0  0  0
  8 14  2  0  0  0  0
  9 15  2  0  0  0  0
  9 11  1  0  0  0  0
 11 16  2  0  0  0  0
 12 17  1  0  0  0  0
 12 35  1  0  0  0  0
 12 36  1  0  0  0  0
 13 18  2  0  0  0  0
 13 19  1  0  0  0  0
 14 18  1  0  0  0  0
 14 37  1  0  0  0  0
 15 20  1  0  0  0  0
 15 38  1  0  0  0  0
 16 21  1  0  0  0  0
 16 39  1  0  0  0  0
 17 22  1  0  0  0  0
 17 23  1  0  0  0  0
 18 40  1  0  0  0  0
 19 41  1  0  0  0  0
 19 42  1  0  0  0  0
 19 43  1  0  0  0  0
 20 21  2  0  0  0  0
 20 44  1  0  0  0  0
 21 45  1  0  0  0  0
 22 24  1  0  0  0  0
 22 25  2  0  0  0  0
 23 26  1  0  0  0  0
 23 27  2  0  0  0  0
 24 28  1  0  0  0  0
 24 26  2  0  0  0  0
 26 29  1  0  0  0  0
 28 30  2  0  0  0  0
 28 46  1  0  0  0  0
 29 31  2  0  0  0  0
 29 47  1  0  0  0  0
 30 31  1  0  0  0  0
 30 48  1  0  0  0  0
 31 49  1  0  0  0  0
M  END
>  <Mol_ID>
8038

>  <Formula>
C24H18N4O3

>  <MolWeight>
410.42472

>  <Cat>
P2206

>  <Name>
WAY-311562

>  <Synonyms>
N/A

>  <Target>
others

>  <Form>
free base

>  <CAS>
381196-41-4

>  <URL>
N/A

$$$$
