WAY-621102
 OpenBabel08302521443D

 50 53  0  0  0  0  0  0  0  0999 V2000
   -2.6886    4.1080    0.1184 C   0  0  0  0  0  0  0  0  0  0  0  0
   -3.3266    5.0681   -0.7482 C   0  0  0  0  0  0  0  0  0  0  0  0
   -3.1471    4.3929    1.3921 C   0  0  0  0  0  0  0  0  0  0  0  0
   -3.9663    5.4662    1.3909 O   0  0  0  0  0  0  0  0  0  0  0  0
   -3.3842    5.3608   -2.1495 C   0  0  0  0  0  0  0  0  0  0  0  0
    2.2113    3.1001    3.1400 N   0  0  0  0  0  0  0  0  0  0  0  0
   -4.0488    5.8993    0.1073 C   0  0  0  0  0  0  0  0  0  0  0  0
   -1.7352    3.0046   -0.1951 C   0  0  0  0  0  0  0  0  0  0  0  0
    1.2975    2.9902    2.1172 C   0  0  0  0  0  0  0  0  0  0  0  0
   -0.3052    3.4232   -0.4661 C   0  0  0  0  0  0  0  0  0  0  0  0
    2.0562    2.3462    4.3762 C   0  0  3  0  0  0  0  0  0  0  0  0
   -4.0249    6.5640   -2.5639 C   0  0  0  0  0  0  0  0  0  0  0  0
    0.3532    2.1955    2.1591 O   0  0  0  0  0  0  0  0  0  0  0  0
    0.3947    2.9161   -1.3331 O   0  0  0  0  0  0  0  0  0  0  0  0
   -4.7622    7.0263   -0.2864 C   0  0  0  0  0  0  0  0  0  0  0  0
    0.1608    4.2857    0.4809 O   0  0  0  0  0  0  0  0  0  0  0  0
   -4.6942    7.3715   -1.6355 C   0  0  0  0  0  0  0  0  0  0  0  0
    3.1659    1.3244    4.5406 C   0  0  0  0  0  0  0  0  0  0  0  0
    1.4803    3.9727    0.9572 C   0  0  0  0  0  0  0  0  0  0  0  0
   -2.8504    4.5043   -3.1361 C   0  0  0  0  0  0  0  0  0  0  0  0
    1.9721    3.3025    5.5694 C   0  0  0  0  0  0  0  0  0  0  0  0
    4.5132    1.7050    4.5599 C   0  0  0  0  0  0  0  0  0  0  0  0
    2.8490   -0.0367    4.6887 C   0  0  0  0  0  0  0  0  0  0  0  0
   -4.0011    6.9244   -3.9190 C   0  0  0  0  0  0  0  0  0  0  0  0
   -2.9079    4.8510   -4.4884 C   0  0  0  0  0  0  0  0  0  0  0  0
    3.8596   -0.9895    4.8395 C   0  0  0  0  0  0  0  0  0  0  0  0
    5.5252    0.7449    4.7053 C   0  0  0  0  0  0  0  0  0  0  0  0
   -3.4478    6.0734   -4.8750 C   0  0  0  0  0  0  0  0  0  0  0  0
    5.1959   -0.5951    4.8406 C   0  0  0  0  0  0  0  0  0  0  0  0
   -2.9716    3.9438    2.3607 H   0  0  0  0  0  0  0  0  0  0  0  0
    3.0281    3.6844    3.0304 H   0  0  0  0  0  0  0  0  0  0  0  0
   -1.6927    2.3104    0.6529 H   0  0  0  0  0  0  0  0  0  0  0  0
   -2.0990    2.4152   -1.0415 H   0  0  0  0  0  0  0  0  0  0  0  0
    1.0972    1.8153    4.3391 H   0  0  0  0  0  0  0  0  0  0  0  0
   -5.3174    7.6184    0.4306 H   0  0  0  0  0  0  0  0  0  0  0  0
   -5.2084    8.2732   -1.9635 H   0  0  0  0  0  0  0  0  0  0  0  0
    2.1242    3.5276    0.1911 H   0  0  0  0  0  0  0  0  0  0  0  0
    1.9435    4.8988    1.3117 H   0  0  0  0  0  0  0  0  0  0  0  0
   -2.4207    3.5435   -2.8765 H   0  0  0  0  0  0  0  0  0  0  0  0
    2.9398    3.7559    5.8069 H   0  0  0  0  0  0  0  0  0  0  0  0
    1.2688    4.1182    5.3640 H   0  0  0  0  0  0  0  0  0  0  0  0
    1.6230    2.7740    6.4636 H   0  0  0  0  0  0  0  0  0  0  0  0
    4.7998    2.7463    4.4630 H   0  0  0  0  0  0  0  0  0  0  0  0
    1.8112   -0.3666    4.6885 H   0  0  0  0  0  0  0  0  0  0  0  0
   -4.4287    7.8701   -4.2459 H   0  0  0  0  0  0  0  0  0  0  0  0
   -2.5271    4.1647   -5.2407 H   0  0  0  0  0  0  0  0  0  0  0  0
    3.6017   -2.0397    4.9501 H   0  0  0  0  0  0  0  0  0  0  0  0
    6.5666    1.0553    4.7127 H   0  0  0  0  0  0  0  0  0  0  0  0
   -3.4574    6.3582   -5.9240 H   0  0  0  0  0  0  0  0  0  0  0  0
    5.9805   -1.3423    4.9492 H   0  0  0  0  0  0  0  0  0  0  0  0
  2  1  1  0  0  0  0
  3  1  2  0  0  0  0
  3 30  1  0  0  0  0
  4  3  1  0  0  0  0
  4  7  1  0  0  0  0
  5  2  1  0  0  0  0
  6  9  1  0  0  0  0
  6 31  1  0  0  0  0
  7  2  2  0  0  0  0
  8  1  1  0  0  0  0
  8 32  1  0  0  0  0
  8 33  1  0  0  0  0
  9 19  1  0  0  0  0
 10  8  1  0  0  0  0
 11  6  1  0  0  0  0
 11 34  1  0  0  0  0
 12  5  2  0  0  0  0
 13  9  2  0  0  0  0
 14 10  2  0  0  0  0
 15  7  1  0  0  0  0
 15 35  1  0  0  0  0
 16 10  1  0  0  0  0
 17 15  2  0  0  0  0
 17 12  1  0  0  0  0
 17 36  1  0  0  0  0
 18 11  1  0  0  0  0
 19 16  1  0  0  0  0
 19 37  1  0  0  0  0
 19 38  1  0  0  0  0
 20  5  1  0  0  0  0
 20 39  1  0  0  0  0
 21 11  1  0  0  0  0
 21 40  1  0  0  0  0
 21 41  1  0  0  0  0
 21 42  1  0  0  0  0
 22 18  2  0  0  0  0
 22 43  1  0  0  0  0
 23 18  1  0  0  0  0
 23 44  1  0  0  0  0
 24 12  1  0  0  0  0
 24 28  2  0  0  0  0
 24 45  1  0  0  0  0
 25 20  2  0  0  0  0
 25 46  1  0  0  0  0
 26 23  2  0  0  0  0
 26 47  1  0  0  0  0
 27 22  1  0  0  0  0
 27 29  2  0  0  0  0
 27 48  1  0  0  0  0
 28 25  1  0  0  0  0
 28 49  1  0  0  0  0
 29 26  1  0  0  0  0
 29 50  1  0  0  0  0
M  END
>  <Mol_ID>
9043

>  <Formula>
C24H21NO4

>  <MolWeight>
387.42784

>  <Cat>
P2964

>  <Name>
WAY-621102

>  <Synonyms>
N/A

>  <Target>
Anti-infection

>  <Form>
free base

>  <CAS>
732294-40-5

>  <URL>
N/A

$$$$
