WAY-638934
 OpenBabel08302521433D

 36 38  0  0  0  0  0  0  0  0999 V2000
    0.0475   -0.7141    0.0802 C   0  0  0  0  0  0  0  0  0  0  0  0
    0.1710    0.6515   -0.0316 C   0  0  0  0  0  0  0  0  0  0  0  0
    2.4224   -0.0374   -0.0012 C   0  0  0  0  0  0  0  0  0  0  0  0
   -1.0943   -1.4403    0.1082 N   0  0  0  0  0  0  0  0  0  0  0  0
    1.5568    1.0668   -0.0250 C   0  0  0  0  0  0  0  0  0  0  0  0
   -1.0689    1.4149   -0.1181 C   0  0  0  0  0  0  0  0  0  0  0  0
    1.5412   -1.4826    0.2386 S   0  0  0  0  0  0  0  0  0  0  0  0
   -2.2035    0.6315   -0.1039 N   0  0  0  0  0  0  0  0  0  0  0  0
   -2.1875   -0.7464    0.0161 C   0  0  0  0  0  0  0  0  0  0  0  0
    3.8944   -0.0068    0.0072 C   0  0  0  0  0  0  0  0  0  0  0  0
   -3.5174   -1.4135    0.0479 C   0  0  0  0  0  0  0  0  0  0  0  0
    4.6737   -1.0641   -0.5124 N   0  0  0  0  0  0  0  0  0  0  0  0
   -1.1311    2.6371   -0.1988 O   0  0  0  0  0  0  0  0  0  0  0  0
    4.4732    0.9864    0.4577 O   0  0  0  0  0  0  0  0  0  0  0  0
   -4.6013   -0.6089   -0.1096 N   0  0  0  0  0  0  0  0  0  0  0  0
    2.0210    2.4943   -0.0497 C   0  0  0  0  0  0  0  0  0  0  0  0
   -5.8041   -1.2265   -0.0597 C   0  0  0  0  0  0  0  0  0  0  0  0
    6.1223   -0.9499   -0.4509 C   0  0  0  0  0  0  0  0  0  0  0  0
    4.1797   -2.2519   -1.1946 C   0  0  0  0  0  0  0  0  0  0  0  0
   -3.5875   -2.7896    0.2516 C   0  0  0  0  0  0  0  0  0  0  0  0
   -5.9707   -2.5920    0.1463 C   0  0  0  0  0  0  0  0  0  0  0  0
   -4.8433   -3.3837    0.3046 C   0  0  0  0  0  0  0  0  0  0  0  0
   -3.0996    1.1000   -0.1642 H   0  0  0  0  0  0  0  0  0  0  0  0
    2.6056    2.7155    0.8503 H   0  0  0  0  0  0  0  0  0  0  0  0
    2.6438    2.6807   -0.9299 H   0  0  0  0  0  0  0  0  0  0  0  0
    1.1960    3.2089   -0.0699 H   0  0  0  0  0  0  0  0  0  0  0  0
   -6.6677   -0.5800   -0.1919 H   0  0  0  0  0  0  0  0  0  0  0  0
    6.5184   -1.8113    0.0950 H   0  0  0  0  0  0  0  0  0  0  0  0
    6.5142   -0.9578   -1.4737 H   0  0  0  0  0  0  0  0  0  0  0  0
    6.4628   -0.0368    0.0408 H   0  0  0  0  0  0  0  0  0  0  0  0
    3.7238   -2.9294   -0.4688 H   0  0  0  0  0  0  0  0  0  0  0  0
    3.4688   -1.9691   -1.9749 H   0  0  0  0  0  0  0  0  0  0  0  0
    5.0095   -2.7959   -1.6590 H   0  0  0  0  0  0  0  0  0  0  0  0
   -2.6875   -3.3827    0.3745 H   0  0  0  0  0  0  0  0  0  0  0  0
   -6.9642   -3.0291    0.1841 H   0  0  0  0  0  0  0  0  0  0  0  0
   -4.9297   -4.4532    0.4718 H   0  0  0  0  0  0  0  0  0  0  0  0
  2  1  2  0  0  0  0
  3  7  1  0  0  0  0
  4  1  1  0  0  0  0
  5  2  1  0  0  0  0
  5  3  2  0  0  0  0
  6  2  1  0  0  0  0
  7  1  1  0  0  0  0
  8  9  1  0  0  0  0
  8  6  1  0  0  0  0
  8 23  1  0  0  0  0
  9  4  2  0  0  0  0
 10  3  1  0  0  0  0
 11  9  1  0  0  0  0
 12 10  1  0  0  0  0
 13  6  2  0  0  0  0
 14 10  2  0  0  0  0
 15 11  2  0  0  0  0
 16  5  1  0  0  0  0
 16 24  1  0  0  0  0
 16 25  1  0  0  0  0
 16 26  1  0  0  0  0
 17 15  1  0  0  0  0
 17 27  1  0  0  0  0
 18 12  1  0  0  0  0
 18 28  1  0  0  0  0
 18 29  1  0  0  0  0
 18 30  1  0  0  0  0
 19 12  1  0  0  0  0
 19 31  1  0  0  0  0
 19 32  1  0  0  0  0
 19 33  1  0  0  0  0
 20 11  1  0  0  0  0
 20 34  1  0  0  0  0
 21 22  1  0  0  0  0
 21 17  2  0  0  0  0
 21 35  1  0  0  0  0
 22 20  2  0  0  0  0
 22 36  1  0  0  0  0
M  END
>  <Mol_ID>
8797

>  <Formula>
C15H14N4O2S

>  <MolWeight>
314.36226

>  <Cat>
P3061

>  <Name>
WAY-638934

>  <Synonyms>
N/A

>  <Target>
Others

>  <Form>
free base

>  <CAS>
796083-72-2

>  <URL>
N/A

$$$$
