WAY-659095
 OpenBabel08302521433D

 33 35  0  0  0  0  0  0  0  0999 V2000
    0.2738    0.7075    0.0265 C   0  0  0  0  0  0  0  0  0  0  0  0
    0.1823   -0.6682   -0.0002 C   0  0  0  0  0  0  0  0  0  0  0  0
    1.6410    1.1781    0.0069 C   0  0  0  0  0  0  0  0  0  0  0  0
   -0.9782    1.4476    0.0724 C   0  0  0  0  0  0  0  0  0  0  0  0
    2.5320    0.1033   -0.0106 C   0  0  0  0  0  0  0  0  0  0  0  0
    1.7054   -1.4047   -0.0293 S   0  0  0  0  0  0  0  0  0  0  0  0
   -0.9585   -1.4117   -0.0148 N   0  0  0  0  0  0  0  0  0  0  0  0
   -2.1008    0.6486    0.1095 N   0  0  0  0  0  0  0  0  0  0  0  0
   -2.0613   -0.7268    0.0374 C   0  0  0  0  0  0  0  0  0  0  0  0
    3.9805    0.0597   -0.0154 C   0  0  0  0  0  0  0  0  0  0  0  0
   -1.0721    2.6693    0.0758 O   0  0  0  0  0  0  0  0  0  0  0  0
    4.7134   -0.9215   -0.0304 O   0  0  0  0  0  0  0  0  0  0  0  0
   -3.4075   -1.4341    0.0023 C   0  0  0  0  0  0  0  0  0  0  0  0
    2.0504    2.6197    0.0060 C   0  0  0  0  0  0  0  0  0  0  0  0
    4.5426    1.2880    0.0040 O   0  0  0  0  0  0  0  0  0  0  0  0
   -3.9293   -1.5757   -1.4101 C   0  0  0  0  0  0  0  0  0  0  0  0
   -3.2183   -2.3247   -2.3601 C   0  0  0  0  0  0  0  0  0  0  0  0
   -5.1047   -0.9237   -1.8074 C   0  0  0  0  0  0  0  0  0  0  0  0
   -5.5101   -0.9481   -3.1437 C   0  0  0  0  0  0  0  0  0  0  0  0
   -3.6248   -2.3467   -3.6953 C   0  0  0  0  0  0  0  0  0  0  0  0
   -4.7584   -1.6408   -4.0907 C   0  0  0  0  0  0  0  0  0  0  0  0
   -2.9782    1.1474    0.1356 H   0  0  0  0  0  0  0  0  0  0  0  0
   -3.3106   -2.4239    0.4631 H   0  0  0  0  0  0  0  0  0  0  0  0
   -4.1194   -0.8640    0.6114 H   0  0  0  0  0  0  0  0  0  0  0  0
    2.6438    2.8473    0.8980 H   0  0  0  0  0  0  0  0  0  0  0  0
    2.6458    2.8462   -0.8853 H   0  0  0  0  0  0  0  0  0  0  0  0
    1.2022    3.3057    0.0024 H   0  0  0  0  0  0  0  0  0  0  0  0
    5.4991    1.0853    0.0024 H   0  0  0  0  0  0  0  0  0  0  0  0
   -2.3224   -2.8737   -2.0722 H   0  0  0  0  0  0  0  0  0  0  0  0
   -5.7078   -0.3764   -1.0871 H   0  0  0  0  0  0  0  0  0  0  0  0
   -6.4037   -0.4108   -3.4511 H   0  0  0  0  0  0  0  0  0  0  0  0
   -3.0432   -2.8977   -4.4302 H   0  0  0  0  0  0  0  0  0  0  0  0
   -5.0544   -1.6293   -5.1366 H   0  0  0  0  0  0  0  0  0  0  0  0
  2  1  2  0  0  0  0
  3  1  1  0  0  0  0
  4  1  1  0  0  0  0
  5  3  2  0  0  0  0
  6  2  1  0  0  0  0
  6  5  1  0  0  0  0
  7  2  1  0  0  0  0
  8  4  1  0  0  0  0
  8 22  1  0  0  0  0
  9  8  1  0  0  0  0
  9  7  2  0  0  0  0
 10  5  1  0  0  0  0
 11  4  2  0  0  0  0
 12 10  2  0  0  0  0
 13  9  1  0  0  0  0
 13 23  1  0  0  0  0
 13 24  1  0  0  0  0
 14  3  1  0  0  0  0
 14 25  1  0  0  0  0
 14 26  1  0  0  0  0
 14 27  1  0  0  0  0
 15 10  1  0  0  0  0
 15 28  1  0  0  0  0
 16 13  1  0  0  0  0
 17 16  2  0  0  0  0
 17 29  1  0  0  0  0
 18 16  1  0  0  0  0
 18 30  1  0  0  0  0
 19 18  2  0  0  0  0
 19 31  1  0  0  0  0
 20 17  1  0  0  0  0
 20 32  1  0  0  0  0
 21 19  1  0  0  0  0
 21 20  2  0  0  0  0
 21 33  1  0  0  0  0
M  END
>  <Mol_ID>
8831

>  <Formula>
C15H12N2O3S

>  <MolWeight>
300.33238

>  <Cat>
P3182

>  <Name>
WAY-659095

>  <Synonyms>
N/A

>  <Target>
PDE9

>  <Form>
free base

>  <CAS>
421562-28-9

>  <URL>
N/A

$$$$
