WAY-656665
 OpenBabel08302521423D

 41 43  0  0  0  0  0  0  0  0999 V2000
    0.9966    0.2160    0.6728 C   0  0  0  0  0  0  0  0  0  0  0  0
    1.3692    2.6707    0.2643 C   0  0  0  0  0  0  0  0  0  0  0  0
    0.6773    1.3513    0.0201 C   0  0  0  0  0  0  0  0  0  0  0  0
    2.2345    7.0761    0.0490 C   0  0  0  0  0  0  0  0  0  0  0  0
    0.4989    3.7444    0.1400 N   0  0  0  0  0  0  0  0  0  0  0  0
    0.2912   -1.0767    0.4714 C   0  0  0  0  0  0  0  0  0  0  0  0
    0.7905    5.1399    0.1121 C   0  0  0  0  0  0  0  0  0  0  0  0
    2.0756    5.6919    0.1915 C   0  0  0  0  0  0  0  0  0  0  0  0
    1.1427    7.9141   -0.1994 C   0  0  0  0  0  0  0  0  0  0  0  0
    2.5628    2.7113    0.5294 O   0  0  0  0  0  0  0  0  0  0  0  0
    0.7328   -2.1885   -0.2694 C   0  0  0  0  0  0  0  0  0  0  0  0
   -0.1368    7.3992   -0.2420 C   0  0  0  0  0  0  0  0  0  0  0  0
   -0.3074    6.0161   -0.0701 C   0  0  0  0  0  0  0  0  0  0  0  0
    1.8736   -2.3497   -1.0149 O   0  0  0  0  0  0  0  0  0  0  0  0
    3.5059    7.8767    0.0553 C   0  0  0  0  0  0  0  0  0  0  0  0
    2.9753    9.3182    0.1753 C   0  0  0  0  0  0  0  0  0  0  0  0
    1.5861    9.3204   -0.4710 C   0  0  0  0  0  0  0  0  0  0  0  0
   -0.9672   -1.1891    1.1081 C   0  0  0  0  0  0  0  0  0  0  0  0
   -0.0705   -3.3415   -0.3664 C   0  0  0  0  0  0  0  0  0  0  0  0
    3.0285   -1.5930   -0.7117 C   0  0  0  0  0  0  0  0  0  0  0  0
   -1.3110   -3.4260    0.2644 C   0  0  0  0  0  0  0  0  0  0  0  0
   -1.7573   -2.3448    1.0063 C   0  0  0  0  0  0  0  0  0  0  0  0
    1.7508    0.2163    1.4567 H   0  0  0  0  0  0  0  0  0  0  0  0
   -0.0806    1.3490   -0.7549 H   0  0  0  0  0  0  0  0  0  0  0  0
   -0.4794    3.5155    0.0260 H   0  0  0  0  0  0  0  0  0  0  0  0
    2.9514    5.0694    0.3381 H   0  0  0  0  0  0  0  0  0  0  0  0
   -0.9910    8.0461   -0.4175 H   0  0  0  0  0  0  0  0  0  0  0  0
   -1.3223    5.6271   -0.1087 H   0  0  0  0  0  0  0  0  0  0  0  0
    4.0479    7.7403   -0.8857 H   0  0  0  0  0  0  0  0  0  0  0  0
    4.1501    7.6295    0.9034 H   0  0  0  0  0  0  0  0  0  0  0  0
    2.8766    9.5865    1.2367 H   0  0  0  0  0  0  0  0  0  0  0  0
    3.6497   10.0546   -0.2764 H   0  0  0  0  0  0  0  0  0  0  0  0
    0.9335   10.0781   -0.0278 H   0  0  0  0  0  0  0  0  0  0  0  0
    1.6611    9.4873   -1.5518 H   0  0  0  0  0  0  0  0  0  0  0  0
   -1.3526   -0.3650    1.7057 H   0  0  0  0  0  0  0  0  0  0  0  0
    0.2777   -4.1924   -0.9543 H   0  0  0  0  0  0  0  0  0  0  0  0
    2.9047   -0.5518   -1.0113 H   0  0  0  0  0  0  0  0  0  0  0  0
    3.3181   -1.6941    0.3383 H   0  0  0  0  0  0  0  0  0  0  0  0
    3.8428   -2.0065   -1.3180 H   0  0  0  0  0  0  0  0  0  0  0  0
   -1.9108   -4.3266    0.1744 H   0  0  0  0  0  0  0  0  0  0  0  0
   -2.7215   -2.3967    1.5083 H   0  0  0  0  0  0  0  0  0  0  0  0
  1 23  1  0  0  0  0
  2  3  1  0  0  0  0
  3  1  2  0  0  0  0
  3 24  1  0  0  0  0
  4  8  2  0  0  0  0
  5  2  1  0  0  0  0
  5 25  1  0  0  0  0
  6  1  1  0  0  0  0
  7  5  1  0  0  0  0
  8  7  1  0  0  0  0
  8 26  1  0  0  0  0
  9 12  2  0  0  0  0
  9  4  1  0  0  0  0
 10  2  2  0  0  0  0
 11  6  2  0  0  0  0
 12 13  1  0  0  0  0
 12 27  1  0  0  0  0
 13  7  2  0  0  0  0
 13 28  1  0  0  0  0
 14 11  1  0  0  0  0
 15  4  1  0  0  0  0
 15 29  1  0  0  0  0
 15 30  1  0  0  0  0
 16 15  1  0  0  0  0
 16 17  1  0  0  0  0
 16 31  1  0  0  0  0
 16 32  1  0  0  0  0
 17  9  1  0  0  0  0
 17 33  1  0  0  0  0
 17 34  1  0  0  0  0
 18  6  1  0  0  0  0
 18 35  1  0  0  0  0
 19 11  1  0  0  0  0
 19 36  1  0  0  0  0
 20 14  1  0  0  0  0
 20 37  1  0  0  0  0
 20 38  1  0  0  0  0
 20 39  1  0  0  0  0
 21 22  1  0  0  0  0
 21 19  2  0  0  0  0
 21 40  1  0  0  0  0
 22 18  2  0  0  0  0
 22 41  1  0  0  0  0
M  END
>  <Mol_ID>
8534

>  <Formula>
C19H19NO2

>  <MolWeight>
293.35966

>  <Cat>
P3145

>  <Name>
WAY-656665

>  <Synonyms>
N/A

>  <Target>
Androgen Receptor

>  <Form>
free base

>  <CAS>
852846-92-5

>  <URL>
N/A

$$$$
