WAY-331957
 OpenBabel08302521453D

 58 61  0  0  0  0  0  0  0  0999 V2000
   -2.6244    2.3663   -4.5545 N   0  0  0  0  0  0  0  0  0  0  0  0
   -3.1217    3.0511   -5.5671 C   0  0  0  0  0  0  0  0  0  0  0  0
   -2.8675    3.1627   -3.4480 C   0  0  0  0  0  0  0  0  0  0  0  0
   -3.6643    4.2551   -5.2089 O   0  0  0  0  0  0  0  0  0  0  0  0
   -3.5087    4.3153   -3.8548 C   0  0  0  0  0  0  0  0  0  0  0  0
    2.0169    4.1977   -2.8246 N   0  0  0  0  0  0  0  0  0  0  0  0
    3.0286    6.7844   -3.4596 N   0  0  0  0  0  0  0  0  0  0  0  0
    1.6358    2.8641   -2.7240 C   0  0  0  0  0  0  0  0  0  0  0  0
   -3.1996    2.6982   -6.9803 C   0  0  0  0  0  0  0  0  0  0  0  0
    3.4405    8.1033   -3.5252 C   0  0  0  0  0  0  0  0  0  0  0  0
    1.1002    5.3238   -3.0248 C   0  0  0  0  0  0  0  0  0  0  0  0
    3.3465    4.5876   -2.3498 C   0  0  0  0  0  0  0  0  0  0  0  0
    1.6941    6.4069   -3.9332 C   0  0  0  0  0  0  0  0  0  0  0  0
    3.9836    5.6894   -3.2127 C   0  0  0  0  0  0  0  0  0  0  0  0
    2.4621    1.9683   -2.5269 O   0  0  0  0  0  0  0  0  0  0  0  0
   -2.7708    1.4375   -7.4072 C   0  0  0  0  0  0  0  0  0  0  0  0
   -3.7134    3.5851   -7.9363 C   0  0  0  0  0  0  0  0  0  0  0  0
    2.9367    9.0063   -4.4759 C   0  0  0  0  0  0  0  0  0  0  0  0
    4.3297    8.6082   -2.5622 C   0  0  0  0  0  0  0  0  0  0  0  0
   -0.8427    3.1980   -1.5485 S   0  0  0  0  0  0  0  0  0  0  0  0
   -2.4999    2.6977   -2.0849 C   0  0  0  0  0  0  0  0  0  0  0  0
    4.1248   10.8268   -3.4553 C   0  0  0  0  0  0  0  0  0  0  0  0
   -3.3556    1.9586   -9.7000 C   0  0  0  0  0  0  0  0  0  0  0  0
    0.1648    2.5114   -2.9191 C   0  0  0  0  0  0  0  0  0  0  0  0
    4.6642    9.9535   -2.5173 C   0  0  0  0  0  0  0  0  0  0  0  0
    3.2708   10.3637   -4.4436 C   0  0  0  0  0  0  0  0  0  0  0  0
   -2.8497    1.0657   -8.7563 C   0  0  0  0  0  0  0  0  0  0  0  0
   -3.7892    3.2181   -9.2810 C   0  0  0  0  0  0  0  0  0  0  0  0
    4.4194   12.1325   -3.3962 F   0  0  0  0  0  0  0  0  0  0  0  0
   -4.0626    5.5086   -3.1959 C   0  0  0  0  0  0  0  0  0  0  0  0
   -3.4787    1.7310  -11.0419 O   0  0  0  0  0  0  0  0  0  0  0  0
   -3.0435    0.4629  -11.5170 C   0  0  0  0  0  0  0  0  0  0  0  0
    0.1501    5.0064   -3.4558 H   0  0  0  0  0  0  0  0  0  0  0  0
    0.9012    5.7475   -2.0313 H   0  0  0  0  0  0  0  0  0  0  0  0
    3.2102    4.9596   -1.3254 H   0  0  0  0  0  0  0  0  0  0  0  0
    4.0199    3.7269   -2.2890 H   0  0  0  0  0  0  0  0  0  0  0  0
    1.7446    6.0485   -4.9679 H   0  0  0  0  0  0  0  0  0  0  0  0
    1.0004    7.2561   -3.9016 H   0  0  0  0  0  0  0  0  0  0  0  0
    4.3022    5.2667   -4.1739 H   0  0  0  0  0  0  0  0  0  0  0  0
    4.8917    6.0278   -2.7033 H   0  0  0  0  0  0  0  0  0  0  0  0
   -2.3702    0.7241   -6.6872 H   0  0  0  0  0  0  0  0  0  0  0  0
   -4.0667    4.5732   -7.6437 H   0  0  0  0  0  0  0  0  0  0  0  0
    2.2719    8.6609   -5.2659 H   0  0  0  0  0  0  0  0  0  0  0  0
    4.7225    7.9608   -1.7854 H   0  0  0  0  0  0  0  0  0  0  0  0
   -3.2068    3.1096   -1.3572 H   0  0  0  0  0  0  0  0  0  0  0  0
   -2.5706    1.6082   -2.0189 H   0  0  0  0  0  0  0  0  0  0  0  0
    0.0687    1.4211   -2.9078 H   0  0  0  0  0  0  0  0  0  0  0  0
   -0.1453    2.8764   -3.9012 H   0  0  0  0  0  0  0  0  0  0  0  0
    5.3262   10.3382   -1.7450 H   0  0  0  0  0  0  0  0  0  0  0  0
    2.8622   11.0517   -5.1710 H   0  0  0  0  0  0  0  0  0  0  0  0
   -2.5111    0.0723   -9.0310 H   0  0  0  0  0  0  0  0  0  0  0  0
   -4.1943    3.9164  -10.0095 H   0  0  0  0  0  0  0  0  0  0  0  0
   -3.6936    6.4182   -3.6805 H   0  0  0  0  0  0  0  0  0  0  0  0
   -5.1550    5.5041   -3.2678 H   0  0  0  0  0  0  0  0  0  0  0  0
   -3.7842    5.5467   -2.1387 H   0  0  0  0  0  0  0  0  0  0  0  0
   -1.9953    0.2783  -11.2625 H   0  0  0  0  0  0  0  0  0  0  0  0
   -3.6902   -0.3343  -11.1380 H   0  0  0  0  0  0  0  0  0  0  0  0
   -3.1203    0.4702  -12.6076 H   0  0  0  0  0  0  0  0  0  0  0  0
  2  1  2  0  0  0  0
  3  1  1  0  0  0  0
  4  2  1  0  0  0  0
  4  5  1  0  0  0  0
  5  3  2  0  0  0  0
  6  8  1  0  0  0  0
  7 14  1  0  0  0  0
  8 24  1  0  0  0  0
  9  2  1  0  0  0  0
 10  7  1  0  0  0  0
 11  6  1  0  0  0  0
 11 33  1  0  0  0  0
 11 34  1  0  0  0  0
 12  6  1  0  0  0  0
 12 35  1  0  0  0  0
 12 36  1  0  0  0  0
 13 11  1  0  0  0  0
 13  7  1  0  0  0  0
 13 37  1  0  0  0  0
 13 38  1  0  0  0  0
 14 12  1  0  0  0  0
 14 39  1  0  0  0  0
 14 40  1  0  0  0  0
 15  8  2  0  0  0  0
 16  9  2  0  0  0  0
 16 41  1  0  0  0  0
 17  9  1  0  0  0  0
 17 42  1  0  0  0  0
 18 10  2  0  0  0  0
 18 43  1  0  0  0  0
 19 10  1  0  0  0  0
 19 44  1  0  0  0  0
 20 21  1  0  0  0  0
 21  3  1  0  0  0  0
 21 45  1  0  0  0  0
 21 46  1  0  0  0  0
 22 25  1  0  0  0  0
 22 26  2  0  0  0  0
 23 28  1  0  0  0  0
 23 27  2  0  0  0  0
 24 20  1  0  0  0  0
 24 47  1  0  0  0  0
 24 48  1  0  0  0  0
 25 19  2  0  0  0  0
 25 49  1  0  0  0  0
 26 18  1  0  0  0  0
 26 50  1  0  0  0  0
 27 16  1  0  0  0  0
 27 51  1  0  0  0  0
 28 17  2  0  0  0  0
 28 52  1  0  0  0  0
 29 22  1  0  0  0  0
 30  5  1  0  0  0  0
 30 53  1  0  0  0  0
 30 54  1  0  0  0  0
 30 55  1  0  0  0  0
 31 23  1  0  0  0  0
 32 31  1  0  0  0  0
 32 56  1  0  0  0  0
 32 57  1  0  0  0  0
 32 58  1  0  0  0  0
M  END
>  <Mol_ID>
9296

>  <Formula>
C24H26FN3O3S

>  <MolWeight>
455.5449432

>  <Cat>
P2619

>  <Name>
WAY-331957

>  <Synonyms>
N/A

>  <Target>
beta-catenin

>  <Form>
free base

>  <CAS>
901869-95-2

>  <URL>
N/A

$$$$
