WAY-325877
 OpenBabel08302521433D

 38 40  0  0  0  0  0  0  0  0999 V2000
    2.3061    0.7772    0.0116 C   0  0  0  0  0  0  0  0  0  0  0  0
    3.5753    2.8255   -0.5361 C   0  0  0  0  0  0  0  0  0  0  0  0
    3.4757    1.5158   -0.0969 N   0  0  0  0  0  0  0  0  0  0  0  0
    2.5303    3.6534   -0.4316 N   0  0  0  0  0  0  0  0  0  0  0  0
    1.3737    5.7749   -0.9098 C   0  0  0  0  0  0  0  0  0  0  0  0
    2.4304   -0.5571    0.0115 N   0  0  0  0  0  0  0  0  0  0  0  0
    1.1195    1.3935    0.0477 N   0  0  0  0  0  0  0  0  0  0  0  0
    2.5978    4.8855   -0.9744 C   0  0  0  0  0  0  0  0  0  0  0  0
    0.0112   -0.7188    0.0454 C   0  0  0  0  0  0  0  0  0  0  0  0
    1.2920   -1.2901    0.0274 C   0  0  0  0  0  0  0  0  0  0  0  0
    4.7326    3.1989   -1.1031 N   0  0  0  0  0  0  0  0  0  0  0  0
    0.0029    0.6734    0.0484 C   0  0  0  0  0  0  0  0  0  0  0  0
    3.7456    5.3255   -1.5984 C   0  0  0  0  0  0  0  0  0  0  0  0
    4.8057    4.4431   -1.6284 C   0  0  0  0  0  0  0  0  0  0  0  0
   -1.2227   -1.4191    0.0445 C   0  0  0  0  0  0  0  0  0  0  0  0
   -1.2097    1.3457    0.0277 C   0  0  0  0  0  0  0  0  0  0  0  0
    0.2858    5.2114   -0.3120 F   0  0  0  0  0  0  0  0  0  0  0  0
    1.6105    6.9356   -0.2299 F   0  0  0  0  0  0  0  0  0  0  0  0
    0.9505    6.1643   -2.1499 F   0  0  0  0  0  0  0  0  0  0  0  0
   -2.4428   -0.7300    0.0144 C   0  0  0  0  0  0  0  0  0  0  0  0
   -2.4269    0.6631    0.0047 C   0  0  0  0  0  0  0  0  0  0  0  0
    1.4777   -2.7812   -0.0166 C   0  0  0  0  0  0  0  0  0  0  0  0
    6.0987    4.8252   -2.2839 C   0  0  0  0  0  0  0  0  0  0  0  0
   -3.7368   -1.4873    0.0174 C   0  0  0  0  0  0  0  0  0  0  0  0
    4.2697    0.9523   -0.3376 H   0  0  0  0  0  0  0  0  0  0  0  0
    3.8032    6.3111   -2.0439 H   0  0  0  0  0  0  0  0  0  0  0  0
   -1.2334   -2.5052    0.0586 H   0  0  0  0  0  0  0  0  0  0  0  0
   -1.2042    2.4341    0.0186 H   0  0  0  0  0  0  0  0  0  0  0  0
   -3.3522    1.2339   -0.0225 H   0  0  0  0  0  0  0  0  0  0  0  0
    1.0650   -3.2456    0.8840 H   0  0  0  0  0  0  0  0  0  0  0  0
    0.9860   -3.1982   -0.9016 H   0  0  0  0  0  0  0  0  0  0  0  0
    2.5400   -3.0400   -0.0749 H   0  0  0  0  0  0  0  0  0  0  0  0
    6.9174    4.7611   -1.5607 H   0  0  0  0  0  0  0  0  0  0  0  0
    6.3057    4.1502   -3.1201 H   0  0  0  0  0  0  0  0  0  0  0  0
    6.0675    5.8487   -2.6727 H   0  0  0  0  0  0  0  0  0  0  0  0
   -3.7328   -2.2453   -0.7725 H   0  0  0  0  0  0  0  0  0  0  0  0
   -3.8817   -1.9749    0.9859 H   0  0  0  0  0  0  0  0  0  0  0  0
   -4.5884   -0.8240   -0.1642 H   0  0  0  0  0  0  0  0  0  0  0  0
  2  3  1  0  0  0  0
  3  1  1  0  0  0  0
  3 25  1  0  0  0  0
  4  2  2  0  0  0  0
  5  8  1  0  0  0  0
  6  1  2  0  0  0  0
  7  1  1  0  0  0  0
  8  4  1  0  0  0  0
  8 13  2  0  0  0  0
  9 12  1  0  0  0  0
 10  6  1  0  0  0  0
 10  9  2  0  0  0  0
 11  2  1  0  0  0  0
 12  7  2  0  0  0  0
 13 14  1  0  0  0  0
 13 26  1  0  0  0  0
 14 11  2  0  0  0  0
 15  9  1  0  0  0  0
 15 27  1  0  0  0  0
 16 12  1  0  0  0  0
 16 28  1  0  0  0  0
 17  5  1  0  0  0  0
 18  5  1  0  0  0  0
 19  5  1  0  0  0  0
 20 21  1  0  0  0  0
 20 15  2  0  0  0  0
 21 16  2  0  0  0  0
 21 29  1  0  0  0  0
 22 10  1  0  0  0  0
 22 30  1  0  0  0  0
 22 31  1  0  0  0  0
 22 32  1  0  0  0  0
 23 14  1  0  0  0  0
 23 33  1  0  0  0  0
 23 34  1  0  0  0  0
 23 35  1  0  0  0  0
 24 20  1  0  0  0  0
 24 36  1  0  0  0  0
 24 37  1  0  0  0  0
 24 38  1  0  0  0  0
M  END
>  <Mol_ID>
8855

>  <Formula>
C16H14F3N5

>  <MolWeight>
333.3110696

>  <Cat>
P2433

>  <Name>
WAY-325877

>  <Synonyms>
N/A

>  <Target>
translation

>  <Form>
free base

>  <CAS>
868963-68-2

>  <URL>
N/A

$$$$
