WAY-358593
 OpenBabel08302521393D

 40 42  0  0  0  0  0  0  0  0999 V2000
    1.2359    1.1393   -0.0155 C   0  0  0  0  0  0  0  0  0  0  0  0
   -0.0223    1.7608   -0.0127 C   0  0  0  0  0  0  0  0  0  0  0  0
    2.5042    1.9180   -0.1377 C   0  0  0  0  0  0  0  0  0  0  0  0
    1.3015   -0.2560    0.0915 C   0  0  0  0  0  0  0  0  0  0  0  0
   -1.2080    1.0085    0.1319 C   0  0  0  0  0  0  0  0  0  0  0  0
    2.5818    3.3531    0.3323 C   0  0  0  0  0  0  0  0  0  0  0  0
    3.4929    1.3444   -0.6047 O   0  0  0  0  0  0  0  0  0  0  0  0
    0.1445   -1.0082    0.2670 C   0  0  0  0  0  0  0  0  0  0  0  0
    2.4789   -0.9552    0.0425 O   0  0  0  0  0  0  0  0  0  0  0  0
   -1.0960   -0.3763    0.3065 C   0  0  0  0  0  0  0  0  0  0  0  0
   -2.5421    1.7174    0.0544 C   0  0  0  0  0  0  0  0  0  0  0  0
    2.3990    3.4077    1.8120 C   0  0  0  0  0  0  0  0  0  0  0  0
   -2.1750   -1.1878    0.5090 O   0  0  0  0  0  0  0  0  0  0  0  0
   -3.1232    2.1551    1.4009 C   0  0  0  0  0  0  0  0  0  0  0  0
    1.2419    3.6278    2.4004 N   0  0  0  0  0  0  0  0  0  0  0  0
    3.7343    3.1837    2.8683 S   0  0  0  0  0  0  0  0  0  0  0  0
   -2.2684    3.1865    2.1159 C   0  0  0  0  0  0  0  0  0  0  0  0
    1.3912    3.5738    3.7780 C   0  0  0  0  0  0  0  0  0  0  0  0
    2.6919    3.3455    4.2297 C   0  0  0  0  0  0  0  0  0  0  0  0
    0.3630    3.7229    4.7317 C   0  0  0  0  0  0  0  0  0  0  0  0
    2.9982    3.2735    5.5978 C   0  0  0  0  0  0  0  0  0  0  0  0
    0.6531    3.6339    6.0956 C   0  0  0  0  0  0  0  0  0  0  0  0
    1.9585    3.4178    6.5192 C   0  0  0  0  0  0  0  0  0  0  0  0
   -0.1050    2.8389   -0.1277 H   0  0  0  0  0  0  0  0  0  0  0  0
    3.5626    3.7554    0.0492 H   0  0  0  0  0  0  0  0  0  0  0  0
    1.8410    3.9642   -0.1910 H   0  0  0  0  0  0  0  0  0  0  0  0
    0.2108   -2.0876    0.3717 H   0  0  0  0  0  0  0  0  0  0  0  0
    3.1836   -0.3413   -0.2624 H   0  0  0  0  0  0  0  0  0  0  0  0
   -2.4517    2.5887   -0.6071 H   0  0  0  0  0  0  0  0  0  0  0  0
   -3.2655    1.0617   -0.4472 H   0  0  0  0  0  0  0  0  0  0  0  0
   -2.9191   -0.6543    0.8279 H   0  0  0  0  0  0  0  0  0  0  0  0
   -4.1135    2.5920    1.2240 H   0  0  0  0  0  0  0  0  0  0  0  0
   -3.2689    1.2914    2.0594 H   0  0  0  0  0  0  0  0  0  0  0  0
   -2.0293    4.0333    1.4648 H   0  0  0  0  0  0  0  0  0  0  0  0
   -2.7911    3.5714    2.9969 H   0  0  0  0  0  0  0  0  0  0  0  0
   -1.3351    2.7324    2.4552 H   0  0  0  0  0  0  0  0  0  0  0  0
   -0.6543    3.9000    4.4027 H   0  0  0  0  0  0  0  0  0  0  0  0
    4.0170    3.1007    5.9326 H   0  0  0  0  0  0  0  0  0  0  0  0
   -0.1480    3.7359    6.8230 H   0  0  0  0  0  0  0  0  0  0  0  0
    2.1743    3.3541    7.5867 H   0  0  0  0  0  0  0  0  0  0  0  0
  1  2  2  0  0  0  0
  1  3  1  0  0  0  0
  1  4  1  0  0  0  0
  2  5  1  0  0  0  0
  2 24  1  0  0  0  0
  3  6  1  0  0  0  0
  3  7  2  0  0  0  0
  4  8  2  0  0  0  0
  4  9  1  0  0  0  0
  5 10  2  0  0  0  0
  5 11  1  0  0  0  0
  6 12  1  0  0  0  0
  6 25  1  0  0  0  0
  6 26  1  0  0  0  0
  8 10  1  0  0  0  0
  8 27  1  0  0  0  0
  9 28  1  0  0  0  0
 10 13  1  0  0  0  0
 11 14  1  0  0  0  0
 11 29  1  0  0  0  0
 11 30  1  0  0  0  0
 12 15  2  0  0  0  0
 12 16  1  0  0  0  0
 13 31  1  0  0  0  0
 14 17  1  0  0  0  0
 14 32  1  0  0  0  0
 14 33  1  0  0  0  0
 15 18  1  0  0  0  0
 16 19  1  0  0  0  0
 17 34  1  0  0  0  0
 17 35  1  0  0  0  0
 17 36  1  0  0  0  0
 18 20  2  0  0  0  0
 18 19  1  0  0  0  0
 19 21  2  0  0  0  0
 20 22  1  0  0  0  0
 20 37  1  0  0  0  0
 21 23  1  0  0  0  0
 21 38  1  0  0  0  0
 22 23  2  0  0  0  0
 22 39  1  0  0  0  0
 23 40  1  0  0  0  0
M  END
>  <Mol_ID>
8078

>  <Formula>
C18H17NO3S

>  <MolWeight>
327.39748

>  <Cat>
P2781

>  <Name>
WAY-358593

>  <Synonyms>
N/A

>  <Target>
TLR2

>  <Form>
free base

>  <CAS>
136506-90-6

>  <URL>
N/A

$$$$
