WAY-300091
 OpenBabel08302521413D

 49 52  0  0  0  0  0  0  0  0999 V2000
   -0.4723    0.5505   -0.0931 C   0  0  0  0  0  0  0  0  0  0  0  0
   -1.8248    0.7292    0.0438 N   0  0  0  0  0  0  0  0  0  0  0  0
   -0.2884   -0.7963   -0.0165 C   0  0  0  0  0  0  0  0  0  0  0  0
    0.5975    1.4700   -0.2272 C   0  0  0  0  0  0  0  0  0  0  0  0
   -2.3948   -0.5321    0.1356 C   0  0  0  0  0  0  0  0  0  0  0  0
   -2.5263    2.0101    0.0488 C   0  0  0  0  0  0  0  0  0  0  0  0
   -1.4680   -1.4688    0.0739 N   0  0  0  0  0  0  0  0  0  0  0  0
    0.9679   -1.3551   -0.0234 N   0  0  0  0  0  0  0  0  0  0  0  0
    1.8560    0.8631   -0.1144 N   0  0  0  0  0  0  0  0  0  0  0  0
    0.4450    2.6741   -0.4075 O   0  0  0  0  0  0  0  0  0  0  0  0
   -3.7414   -0.6959    0.1833 N   0  0  0  0  0  0  0  0  0  0  0  0
   -2.7051    2.6001    1.4351 C   0  0  0  0  0  0  0  0  0  0  0  0
    2.0884   -0.5207   -0.0357 C   0  0  0  0  0  0  0  0  0  0  0  0
    1.1259   -2.7962    0.0375 C   0  0  0  0  0  0  0  0  0  0  0  0
    2.9963    1.7619   -0.0939 C   0  0  0  0  0  0  0  0  0  0  0  0
   -4.2809   -1.8996   -0.4634 C   0  0  0  0  0  0  0  0  0  0  0  0
   -4.4066   -0.4462    1.4705 C   0  0  0  0  0  0  0  0  0  0  0  0
   -1.7909    2.3876    2.4801 C   0  0  0  0  0  0  0  0  0  0  0  0
   -3.8249    3.4097    1.6906 C   0  0  0  0  0  0  0  0  0  0  0  0
    3.2349   -0.9772    0.0254 O   0  0  0  0  0  0  0  0  0  0  0  0
   -5.7392   -1.6151   -0.8367 C   0  0  0  0  0  0  0  0  0  0  0  0
   -5.8541   -0.0569    1.1744 C   0  0  0  0  0  0  0  0  0  0  0  0
   -2.0168    2.9154    3.7521 C   0  0  0  0  0  0  0  0  0  0  0  0
   -4.0465    3.9433    2.9635 C   0  0  0  0  0  0  0  0  0  0  0  0
   -6.5654   -1.1445    0.3653 C   0  0  0  0  0  0  0  0  0  0  0  0
   -3.1483    3.6869    3.9957 C   0  0  0  0  0  0  0  0  0  0  0  0
   -1.9846    2.7106   -0.5933 H   0  0  0  0  0  0  0  0  0  0  0  0
   -3.5015    1.8409   -0.4238 H   0  0  0  0  0  0  0  0  0  0  0  0
    0.6499   -3.1715    0.9487 H   0  0  0  0  0  0  0  0  0  0  0  0
    0.6473   -3.2424   -0.8392 H   0  0  0  0  0  0  0  0  0  0  0  0
    2.1784   -3.0919    0.0470 H   0  0  0  0  0  0  0  0  0  0  0  0
    2.9870    2.3806   -0.9968 H   0  0  0  0  0  0  0  0  0  0  0  0
    2.9001    2.4223    0.7750 H   0  0  0  0  0  0  0  0  0  0  0  0
    3.9516    1.2363   -0.0304 H   0  0  0  0  0  0  0  0  0  0  0  0
   -4.2186   -2.7648    0.2102 H   0  0  0  0  0  0  0  0  0  0  0  0
   -3.7243   -2.1480   -1.3753 H   0  0  0  0  0  0  0  0  0  0  0  0
   -3.9276    0.3489    2.0439 H   0  0  0  0  0  0  0  0  0  0  0  0
   -4.3727   -1.3446    2.1016 H   0  0  0  0  0  0  0  0  0  0  0  0
   -0.8950    1.7920    2.3359 H   0  0  0  0  0  0  0  0  0  0  0  0
   -4.5440    3.6209    0.9011 H   0  0  0  0  0  0  0  0  0  0  0  0
   -6.1960   -2.5112   -1.2712 H   0  0  0  0  0  0  0  0  0  0  0  0
   -5.7622   -0.8356   -1.6088 H   0  0  0  0  0  0  0  0  0  0  0  0
   -5.8682    0.8815    0.6056 H   0  0  0  0  0  0  0  0  0  0  0  0
   -6.3938    0.1248    2.1102 H   0  0  0  0  0  0  0  0  0  0  0  0
   -1.3085    2.7191    4.5524 H   0  0  0  0  0  0  0  0  0  0  0  0
   -4.9245    4.5578    3.1498 H   0  0  0  0  0  0  0  0  0  0  0  0
   -7.5354   -0.7685    0.0195 H   0  0  0  0  0  0  0  0  0  0  0  0
   -6.7694   -2.0008    1.0188 H   0  0  0  0  0  0  0  0  0  0  0  0
   -3.3252    4.0924    4.9880 H   0  0  0  0  0  0  0  0  0  0  0  0
  1  2  1  0  0  0  0
  1  3  2  0  0  0  0
  1  4  1  0  0  0  0
  2  5  1  0  0  0  0
  2  6  1  0  0  0  0
  3  7  1  0  0  0  0
  3  8  1  0  0  0  0
  4  9  1  0  0  0  0
  4 10  2  0  0  0  0
  5 11  1  0  0  0  0
  5  7  2  0  0  0  0
  6 12  1  0  0  0  0
  6 27  1  0  0  0  0
  6 28  1  0  0  0  0
  8 13  1  0  0  0  0
  8 14  1  0  0  0  0
  9 15  1  0  0  0  0
  9 13  1  0  0  0  0
 11 16  1  0  0  0  0
 11 17  1  0  0  0  0
 12 18  2  0  0  0  0
 12 19  1  0  0  0  0
 13 20  2  0  0  0  0
 14 29  1  0  0  0  0
 14 30  1  0  0  0  0
 14 31  1  0  0  0  0
 15 32  1  0  0  0  0
 15 33  1  0  0  0  0
 15 34  1  0  0  0  0
 16 21  1  0  0  0  0
 16 35  1  0  0  0  0
 16 36  1  0  0  0  0
 17 22  1  0  0  0  0
 17 37  1  0  0  0  0
 17 38  1  0  0  0  0
 18 23  1  0  0  0  0
 18 39  1  0  0  0  0
 19 24  2  0  0  0  0
 19 40  1  0  0  0  0
 21 25  1  0  0  0  0
 21 41  1  0  0  0  0
 21 42  1  0  0  0  0
 22 25  1  0  0  0  0
 22 43  1  0  0  0  0
 22 44  1  0  0  0  0
 23 26  2  0  0  0  0
 23 45  1  0  0  0  0
 24 26  1  0  0  0  0
 24 46  1  0  0  0  0
 25 47  1  0  0  0  0
 25 48  1  0  0  0  0
 26 49  1  0  0  0  0
M  END
>  <Mol_ID>
8386

>  <Formula>
C19H22ClN5O2

>  <MolWeight>
387.86328

>  <Cat>
P2131

>  <Name>
WAY-300091

>  <Synonyms>
N/A

>  <Target>
liver X receptor

>  <Form>
free base

>  <CAS>
317842-06-1

>  <URL>
N/A

$$$$
