WAY-640400
 OpenBabel08302521443D

 46 49  0  0  0  0  0  0  0  0999 V2000
    6.4539    1.5300   -0.2850 N   0  0  0  0  0  0  0  0  0  0  0  0
    5.2263    1.7543    0.2873 C   0  0  0  0  0  0  0  0  0  0  0  0
    6.6707    0.4089   -1.0468 C   0  0  0  0  0  0  0  0  0  0  0  0
    4.2073    0.9673    0.2511 N   0  0  0  0  0  0  0  0  0  0  0  0
    5.5438   -0.5496   -1.0470 C   0  0  0  0  0  0  0  0  0  0  0  0
    4.4231   -0.2471   -0.3695 C   0  0  0  0  0  0  0  0  0  0  0  0
    1.1420   -2.0140    2.7277 N   0  0  0  0  0  0  0  0  0  0  0  0
    5.2532    3.2927    1.1339 S   0  0  0  0  0  0  0  0  0  0  0  0
    7.3901    2.5073   -0.0298 C   0  0  0  0  0  0  0  0  0  0  0  0
    3.5736   -2.0975    1.0462 N   0  0  0  0  0  0  0  0  0  0  0  0
    6.9344    3.5103    0.7295 C   0  0  0  0  0  0  0  0  0  0  0  0
    0.0138   -2.0223    3.5318 C   0  0  0  0  0  0  0  0  0  0  0  0
    7.6945    0.1486   -1.6702 O   0  0  0  0  0  0  0  0  0  0  0  0
    3.3363   -1.2909   -0.1668 C   0  0  0  0  0  0  0  0  0  0  0  0
   -2.2131   -2.1698    5.3027 C   0  0  0  0  0  0  0  0  0  0  0  0
   -3.3603   -2.2298    6.2551 C   0  0  0  0  0  0  0  0  0  0  0  0
    1.1691   -2.8628    1.5203 C   0  0  0  0  0  0  0  0  0  0  0  0
    2.0359   -0.8466    2.6816 C   0  0  0  0  0  0  0  0  0  0  0  0
   -3.8601   -1.1939    6.6869 O   0  0  0  0  0  0  0  0  0  0  0  0
   -0.5386   -3.2480    3.9331 C   0  0  0  0  0  0  0  0  0  0  0  0
   -0.5879   -0.8648    4.0467 C   0  0  0  0  0  0  0  0  0  0  0  0
   -1.6333   -3.3301    4.7962 C   0  0  0  0  0  0  0  0  0  0  0  0
   -1.6895   -0.9321    4.9186 C   0  0  0  0  0  0  0  0  0  0  0  0
    3.4633   -1.3124    2.3033 C   0  0  0  0  0  0  0  0  0  0  0  0
    2.6239   -3.2281    1.1359 C   0  0  0  0  0  0  0  0  0  0  0  0
   -3.8844   -3.5853    6.6633 C   0  0  0  0  0  0  0  0  0  0  0  0
    5.7167   -1.5082   -1.5175 H   0  0  0  0  0  0  0  0  0  0  0  0
    8.3974    2.3998   -0.4144 H   0  0  0  0  0  0  0  0  0  0  0  0
    7.5133    4.3572    1.0709 H   0  0  0  0  0  0  0  0  0  0  0  0
    2.3517   -0.8081   -0.1649 H   0  0  0  0  0  0  0  0  0  0  0  0
    3.3397   -1.9575   -1.0404 H   0  0  0  0  0  0  0  0  0  0  0  0
    0.6317   -3.8062    1.6609 H   0  0  0  0  0  0  0  0  0  0  0  0
    0.6754   -2.3394    0.6929 H   0  0  0  0  0  0  0  0  0  0  0  0
    1.6619   -0.1006    1.9706 H   0  0  0  0  0  0  0  0  0  0  0  0
    2.1018   -0.3700    3.6674 H   0  0  0  0  0  0  0  0  0  0  0  0
   -0.0830   -4.1810    3.6142 H   0  0  0  0  0  0  0  0  0  0  0  0
   -0.2181    0.1203    3.7741 H   0  0  0  0  0  0  0  0  0  0  0  0
   -1.9881   -4.3188    5.0666 H   0  0  0  0  0  0  0  0  0  0  0  0
   -2.1260   -0.0102    5.2999 H   0  0  0  0  0  0  0  0  0  0  0  0
    3.8305   -1.9566    3.1148 H   0  0  0  0  0  0  0  0  0  0  0  0
    4.1487   -0.4601    2.3092 H   0  0  0  0  0  0  0  0  0  0  0  0
    3.0121   -3.9194    1.8966 H   0  0  0  0  0  0  0  0  0  0  0  0
    2.6243   -3.7993    0.1996 H   0  0  0  0  0  0  0  0  0  0  0  0
   -4.3119   -4.0974    5.7967 H   0  0  0  0  0  0  0  0  0  0  0  0
   -3.0864   -4.1845    7.1112 H   0  0  0  0  0  0  0  0  0  0  0  0
   -4.6704   -3.4641    7.4139 H   0  0  0  0  0  0  0  0  0  0  0  0
  2  1  1  0  0  0  0
  3  1  1  0  0  0  0
  4  2  2  0  0  0  0
  5  3  1  0  0  0  0
  5 27  1  0  0  0  0
  6  5  2  0  0  0  0
  6  4  1  0  0  0  0
  7 17  1  0  0  0  0
  7 18  1  0  0  0  0
  8  2  1  0  0  0  0
  8 11  1  0  0  0  0
  9  1  1  0  0  0  0
  9 28  1  0  0  0  0
 10 14  1  0  0  0  0
 11  9  2  0  0  0  0
 11 29  1  0  0  0  0
 12  7  1  0  0  0  0
 13  3  2  0  0  0  0
 14  6  1  0  0  0  0
 14 30  1  0  0  0  0
 14 31  1  0  0  0  0
 15 23  2  0  0  0  0
 15 22  1  0  0  0  0
 16 15  1  0  0  0  0
 17 25  1  0  0  0  0
 17 32  1  0  0  0  0
 17 33  1  0  0  0  0
 18 24  1  0  0  0  0
 18 34  1  0  0  0  0
 18 35  1  0  0  0  0
 19 16  2  0  0  0  0
 20 12  1  0  0  0  0
 20 36  1  0  0  0  0
 21 12  2  0  0  0  0
 21 37  1  0  0  0  0
 22 20  2  0  0  0  0
 22 38  1  0  0  0  0
 23 21  1  0  0  0  0
 23 39  1  0  0  0  0
 24 10  1  0  0  0  0
 24 40  1  0  0  0  0
 24 41  1  0  0  0  0
 25 10  1  0  0  0  0
 25 42  1  0  0  0  0
 25 43  1  0  0  0  0
 26 16  1  0  0  0  0
 26 44  1  0  0  0  0
 26 45  1  0  0  0  0
 26 46  1  0  0  0  0
M  END
>  <Mol_ID>
9096

>  <Formula>
C19H20N4O2S

>  <MolWeight>
368.4527

>  <Cat>
P3104

>  <Name>
WAY-640400

>  <Synonyms>
N/A

>  <Target>
K-Ras

>  <Form>
free base

>  <CAS>
791132-77-9

>  <URL>
N/A

$$$$
