WAY-620252
 OpenBabel08302521433D

 60 64  0  0  0  0  0  0  0  0999 V2000
   -1.2804   -0.9355   -1.8478 N   0  0  0  0  0  0  0  0  0  0  0  0
   -1.6221   -1.1846   -3.1416 C   0  0  0  0  0  0  0  0  0  0  0  0
   -1.4882    0.4045   -1.6048 C   0  0  0  0  0  0  0  0  0  0  0  0
   -1.6706    0.0108   -3.8228 N   0  0  0  0  0  0  0  0  0  0  0  0
   -1.9761    1.0932   -2.9110 C   0  0  3  0  0  0  0  0  0  0  0  0
    4.0102   -7.7652   -1.5603 N   0  0  0  0  0  0  0  0  0  0  0  0
    2.0045   -6.7857   -1.6575 C   0  0  0  0  0  0  0  0  0  0  0  0
    3.2717   -6.6940   -1.0827 C   0  0  0  0  0  0  0  0  0  0  0  0
    3.2325   -8.5713   -2.3743 C   0  0  0  0  0  0  0  0  0  0  0  0
    1.9707   -7.9795   -2.4467 C   0  0  0  0  0  0  0  0  0  0  0  0
   -1.3488   -1.9325   -0.7840 C   0  0  0  0  0  0  0  0  0  0  0  0
   -0.7003   -3.3054   -1.0498 C   0  0  0  0  0  0  0  0  0  0  0  0
   -1.3395    2.4008   -3.3615 C   0  0  0  0  0  0  0  0  0  0  0  0
    3.6105   -5.6250   -0.2373 C   0  0  0  0  0  0  0  0  0  0  0  0
    1.0674   -5.7456   -1.4275 C   0  0  0  0  0  0  0  0  0  0  0  0
    0.5835   -3.4657   -0.5411 N   0  0  0  0  0  0  0  0  0  0  0  0
   -1.9295   -2.2368   -3.6688 O   0  0  0  0  0  0  0  0  0  0  0  0
   -1.4492    0.9271   -0.4885 O   0  0  0  0  0  0  0  0  0  0  0  0
    1.4162   -4.6146   -0.6781 C   0  0  0  0  0  0  0  0  0  0  0  0
   -1.3305   -4.1700   -1.6543 O   0  0  0  0  0  0  0  0  0  0  0  0
   -1.6410    2.9008   -4.6467 C   0  0  0  0  0  0  0  0  0  0  0  0
   -0.5002    3.1813   -2.5539 C   0  0  0  0  0  0  0  0  0  0  0  0
    2.6728   -4.5895   -0.0630 C   0  0  0  0  0  0  0  0  0  0  0  0
    5.4526   -7.9113   -1.4192 C   0  0  0  0  0  0  0  0  0  0  0  0
   -3.5112    1.2283   -2.8288 C   0  0  0  0  0  0  0  0  0  0  0  0
   -1.1122    4.1073   -5.1142 C   0  0  0  0  0  0  0  0  0  0  0  0
    0.0365    4.3927   -3.0256 C   0  0  0  0  0  0  0  0  0  0  0  0
   -0.2589    4.8615   -4.3095 C   0  0  0  0  0  0  0  0  0  0  0  0
    3.5433   -9.7434   -3.0875 C   0  0  0  0  0  0  0  0  0  0  0  0
    0.9855   -8.5786   -3.2613 C   0  0  0  0  0  0  0  0  0  0  0  0
    0.3349    6.1319   -4.8458 C   0  0  0  0  0  0  0  0  0  0  0  0
    5.8689   -8.8359   -0.2910 C   0  0  0  0  0  0  0  0  0  0  0  0
    1.2909   -9.7354   -3.9862 C   0  0  0  0  0  0  0  0  0  0  0  0
    2.5536  -10.3084   -3.9005 C   0  0  0  0  0  0  0  0  0  0  0  0
   -2.0243   -0.0182   -4.7685 H   0  0  0  0  0  0  0  0  0  0  0  0
   -0.9289   -1.5035    0.1341 H   0  0  0  0  0  0  0  0  0  0  0  0
   -2.4119   -2.1167   -0.5771 H   0  0  0  0  0  0  0  0  0  0  0  0
    4.5837   -5.5688    0.2404 H   0  0  0  0  0  0  0  0  0  0  0  0
    0.1010   -5.8403   -1.9076 H   0  0  0  0  0  0  0  0  0  0  0  0
    0.9878   -2.6879   -0.0344 H   0  0  0  0  0  0  0  0  0  0  0  0
   -2.3081    2.3523   -5.3097 H   0  0  0  0  0  0  0  0  0  0  0  0
   -0.2498    2.8786   -1.5395 H   0  0  0  0  0  0  0  0  0  0  0  0
    2.9650   -3.7464    0.5588 H   0  0  0  0  0  0  0  0  0  0  0  0
    5.8435   -8.2812   -2.3738 H   0  0  0  0  0  0  0  0  0  0  0  0
    5.8835   -6.9152   -1.2764 H   0  0  0  0  0  0  0  0  0  0  0  0
   -3.9807    0.3109   -2.4533 H   0  0  0  0  0  0  0  0  0  0  0  0
   -3.8098    2.0481   -2.1682 H   0  0  0  0  0  0  0  0  0  0  0  0
   -3.9481    1.4154   -3.8184 H   0  0  0  0  0  0  0  0  0  0  0  0
   -1.3725    4.4531   -6.1127 H   0  0  0  0  0  0  0  0  0  0  0  0
    0.6876    4.9721   -2.3722 H   0  0  0  0  0  0  0  0  0  0  0  0
    4.5287  -10.1946   -3.0393 H   0  0  0  0  0  0  0  0  0  0  0  0
   -0.0002   -8.1289   -3.3451 H   0  0  0  0  0  0  0  0  0  0  0  0
    0.9929    5.9099   -5.6860 H   0  0  0  0  0  0  0  0  0  0  0  0
   -0.4587    6.8106   -5.1823 H   0  0  0  0  0  0  0  0  0  0  0  0
    0.9215    6.6577   -4.0856 H   0  0  0  0  0  0  0  0  0  0  0  0
    5.5092   -8.4724    0.6763 H   0  0  0  0  0  0  0  0  0  0  0  0
    5.4813   -9.8491   -0.4386 H   0  0  0  0  0  0  0  0  0  0  0  0
    6.9619   -8.8981   -0.2462 H   0  0  0  0  0  0  0  0  0  0  0  0
    0.5366  -10.1802   -4.6302 H   0  0  0  0  0  0  0  0  0  0  0  0
    2.7827  -11.1990   -4.4802 H   0  0  0  0  0  0  0  0  0  0  0  0
  2  1  1  0  0  0  0
  3  1  1  0  0  0  0
  4  2  1  0  0  0  0
  4  5  1  0  0  0  0
  4 35  1  0  0  0  0
  5  3  1  0  0  0  0
  6  8  1  0  0  0  0
  6  9  1  0  0  0  0
  7 15  1  0  0  0  0
  7  8  2  0  0  0  0
  8 14  1  0  0  0  0
  9 10  2  0  0  0  0
 10  7  1  0  0  0  0
 11  1  1  0  0  0  0
 11 36  1  0  0  0  0
 11 37  1  0  0  0  0
 12 11  1  0  0  0  0
 13  5  1  0  0  0  0
 14 23  2  0  0  0  0
 14 38  1  0  0  0  0
 15 19  2  0  0  0  0
 15 39  1  0  0  0  0
 16 12  1  0  0  0  0
 16 40  1  0  0  0  0
 17  2  2  0  0  0  0
 18  3  2  0  0  0  0
 19 16  1  0  0  0  0
 20 12  2  0  0  0  0
 21 13  2  0  0  0  0
 21 41  1  0  0  0  0
 22 13  1  0  0  0  0
 22 42  1  0  0  0  0
 23 19  1  0  0  0  0
 23 43  1  0  0  0  0
 24  6  1  0  0  0  0
 24 44  1  0  0  0  0
 24 45  1  0  0  0  0
 25  5  1  0  0  0  0
 25 46  1  0  0  0  0
 25 47  1  0  0  0  0
 25 48  1  0  0  0  0
 26 21  1  0  0  0  0
 26 28  2  0  0  0  0
 26 49  1  0  0  0  0
 27 22  2  0  0  0  0
 27 50  1  0  0  0  0
 28 27  1  0  0  0  0
 29  9  1  0  0  0  0
 29 34  2  0  0  0  0
 29 51  1  0  0  0  0
 30 10  1  0  0  0  0
 30 52  1  0  0  0  0
 31 28  1  0  0  0  0
 31 53  1  0  0  0  0
 31 54  1  0  0  0  0
 31 55  1  0  0  0  0
 32 24  1  0  0  0  0
 32 56  1  0  0  0  0
 32 57  1  0  0  0  0
 32 58  1  0  0  0  0
 33 30  2  0  0  0  0
 33 59  1  0  0  0  0
 34 33  1  0  0  0  0
 34 60  1  0  0  0  0
M  END
>  <Mol_ID>
8768

>  <Formula>
C27H26N4O3

>  <MolWeight>
454.52034

>  <Cat>
P2938

>  <Name>
WAY-620252

>  <Synonyms>
N/A

>  <Target>
p53

>  <Form>
free base

>  <CAS>
956357-71-4

>  <URL>
N/A

$$$$
