WAY-310445
 OpenBabel08302521403D

 42 44  0  0  0  0  0  0  0  0999 V2000
   -0.4166    1.0701   -0.0206 C   0  0  0  0  0  0  0  0  0  0  0  0
   -0.9199   -0.1938    0.0290 C   0  0  0  0  0  0  0  0  0  0  0  0
   -1.4040    2.0083   -0.0618 N   0  0  0  0  0  0  0  0  0  0  0  0
    0.9369    1.3038   -0.0251 N   0  0  0  0  0  0  0  0  0  0  0  0
   -2.2798   -0.0279    0.0684 N   0  0  0  0  0  0  0  0  0  0  0  0
   -0.1071   -1.3586    0.0338 C   0  0  0  0  0  0  0  0  0  0  0  0
   -2.5306    1.3296    0.0158 C   0  0  0  0  0  0  0  0  0  0  0  0
    1.8214    0.2207   -0.0072 C   0  0  0  0  0  0  0  0  0  0  0  0
    1.4798    2.6455   -0.0139 C   0  0  0  0  0  0  0  0  0  0  0  0
   -3.2423   -1.1021    0.0597 C   0  0  0  0  0  0  0  0  0  0  0  0
    1.2613   -1.0693    0.0061 N   0  0  0  0  0  0  0  0  0  0  0  0
   -0.5727   -2.4986    0.0613 O   0  0  0  0  0  0  0  0  0  0  0  0
   -3.7925    1.8095    0.0108 N   0  0  0  0  0  0  0  0  0  0  0  0
    3.0450    0.3900   -0.0003 O   0  0  0  0  0  0  0  0  0  0  0  0
    2.1984   -2.1760    0.0194 C   0  0  0  0  0  0  0  0  0  0  0  0
   -4.0489    3.1564   -0.4956 C   0  0  0  0  0  0  0  0  0  0  0  0
   -5.5251    3.5208   -0.2967 C   0  0  0  0  0  0  0  0  0  0  0  0
   -5.9275    4.8386   -0.9140 C   0  0  0  0  0  0  0  0  0  0  0  0
   -6.4116    4.8834   -2.2291 C   0  0  0  0  0  0  0  0  0  0  0  0
   -5.8699    6.0274   -0.1739 C   0  0  0  0  0  0  0  0  0  0  0  0
   -6.8984    6.0770   -2.7659 C   0  0  0  0  0  0  0  0  0  0  0  0
   -6.3450    7.2234   -0.7178 C   0  0  0  0  0  0  0  0  0  0  0  0
   -6.8787    7.2438   -2.0052 C   0  0  0  0  0  0  0  0  0  0  0  0
    2.1183    2.7637    0.8679 H   0  0  0  0  0  0  0  0  0  0  0  0
    2.0915    2.7897   -0.9095 H   0  0  0  0  0  0  0  0  0  0  0  0
    0.6914    3.4025    0.0133 H   0  0  0  0  0  0  0  0  0  0  0  0
   -3.0559   -1.7279   -0.8175 H   0  0  0  0  0  0  0  0  0  0  0  0
   -3.1197   -1.6802    0.9787 H   0  0  0  0  0  0  0  0  0  0  0  0
   -4.2590   -0.7092    0.0069 H   0  0  0  0  0  0  0  0  0  0  0  0
   -4.4625    1.4508    0.6843 H   0  0  0  0  0  0  0  0  0  0  0  0
    2.8465   -2.1061   -0.8620 H   0  0  0  0  0  0  0  0  0  0  0  0
    2.8270   -2.0978    0.9132 H   0  0  0  0  0  0  0  0  0  0  0  0
    1.7041   -3.1503    0.0182 H   0  0  0  0  0  0  0  0  0  0  0  0
   -3.4096    3.9000   -0.0047 H   0  0  0  0  0  0  0  0  0  0  0  0
   -3.8159    3.1691   -1.5676 H   0  0  0  0  0  0  0  0  0  0  0  0
   -6.1623    2.7295   -0.7154 H   0  0  0  0  0  0  0  0  0  0  0  0
   -5.7648    3.5380    0.7751 H   0  0  0  0  0  0  0  0  0  0  0  0
   -6.4351    3.9822   -2.8378 H   0  0  0  0  0  0  0  0  0  0  0  0
   -5.4754    6.0286    0.8398 H   0  0  0  0  0  0  0  0  0  0  0  0
   -7.3056    6.0929   -3.7736 H   0  0  0  0  0  0  0  0  0  0  0  0
   -6.3131    8.1385   -0.1316 H   0  0  0  0  0  0  0  0  0  0  0  0
   -7.2783    8.1677   -2.4154 H   0  0  0  0  0  0  0  0  0  0  0  0
  1  2  2  0  0  0  0
  1  3  1  0  0  0  0
  1  4  1  0  0  0  0
  2  5  1  0  0  0  0
  2  6  1  0  0  0  0
  3  7  2  0  0  0  0
  4  8  1  0  0  0  0
  4  9  1  0  0  0  0
  5 10  1  0  0  0  0
  5  7  1  0  0  0  0
  6 11  1  0  0  0  0
  6 12  2  0  0  0  0
  7 13  1  0  0  0  0
  8 14  2  0  0  0  0
  8 11  1  0  0  0  0
  9 24  1  0  0  0  0
  9 25  1  0  0  0  0
  9 26  1  0  0  0  0
 10 27  1  0  0  0  0
 10 28  1  0  0  0  0
 10 29  1  0  0  0  0
 11 15  1  0  0  0  0
 13 16  1  0  0  0  0
 13 30  1  0  0  0  0
 15 31  1  0  0  0  0
 15 32  1  0  0  0  0
 15 33  1  0  0  0  0
 16 17  1  0  0  0  0
 16 34  1  0  0  0  0
 16 35  1  0  0  0  0
 17 18  1  0  0  0  0
 17 36  1  0  0  0  0
 17 37  1  0  0  0  0
 18 19  2  0  0  0  0
 18 20  1  0  0  0  0
 19 21  1  0  0  0  0
 19 38  1  0  0  0  0
 20 22  2  0  0  0  0
 20 39  1  0  0  0  0
 21 23  2  0  0  0  0
 21 40  1  0  0  0  0
 22 23  1  0  0  0  0
 22 41  1  0  0  0  0
 23 42  1  0  0  0  0
M  END
>  <Mol_ID>
8311

>  <Formula>
C16H19N5O2

>  <MolWeight>
313.35436

>  <Cat>
P2183

>  <Name>
WAY-310445

>  <Synonyms>
N/A

>  <Target>
MAO

>  <Form>
free base

>  <CAS>
7499-93-6

>  <URL>
N/A

$$$$
