WAY-637193
 OpenBabel08302521423D

 17 17  0  0  0  0  0  0  0  0999 V2000
   -0.6524    1.2653   -0.0817 N   0  0  0  0  0  0  0  0  0  0  0  0
   -1.4315    0.1273   -0.0447 C   0  0  0  0  0  0  0  0  0  0  0  0
    0.7168    1.1931    0.0785 C   0  0  0  0  0  0  0  0  0  0  0  0
    1.3518    0.0674    0.1971 N   0  0  0  0  0  0  0  0  0  0  0  0
    0.6607   -1.1479    0.1527 N   0  0  0  0  0  0  0  0  0  0  0  0
   -0.6310   -1.1456    0.0478 C   0  0  0  0  0  0  0  0  0  0  0  0
   -2.6583    0.1071   -0.0581 O   0  0  0  0  0  0  0  0  0  0  0  0
   -1.2865    2.5506   -0.1814 N   0  0  0  0  0  0  0  0  0  0  0  0
    1.4109    2.3709    0.1013 N   0  0  0  0  0  0  0  0  0  0  0  0
   -1.3692   -2.4528   -0.0026 C   0  0  0  0  0  0  0  0  0  0  0  0
   -1.0574    3.0441    0.6853 H   0  0  0  0  0  0  0  0  0  0  0  0
   -2.2968    2.3735   -0.1232 H   0  0  0  0  0  0  0  0  0  0  0  0
    2.3975    2.2349   -0.0875 H   0  0  0  0  0  0  0  0  0  0  0  0
    0.9776    3.0864   -0.4732 H   0  0  0  0  0  0  0  0  0  0  0  0
   -1.0828   -2.9917   -0.9105 H   0  0  0  0  0  0  0  0  0  0  0  0
   -1.0894   -3.0547    0.8672 H   0  0  0  0  0  0  0  0  0  0  0  0
   -2.4524   -2.3190    0.0008 H   0  0  0  0  0  0  0  0  0  0  0  0
  2  1  1  0  0  0  0
  3  1  1  0  0  0  0
  4  3  2  0  0  0  0
  5  4  1  0  0  0  0
  5  6  2  0  0  0  0
  6  2  1  0  0  0  0
  7  2  2  0  0  0  0
  8  1  1  0  0  0  0
  8 11  1  0  0  0  0
  8 12  1  0  0  0  0
  9  3  1  0  0  0  0
  9 13  1  0  0  0  0
  9 14  1  0  0  0  0
 10  6  1  0  0  0  0
 10 15  1  0  0  0  0
 10 16  1  0  0  0  0
 10 17  1  0  0  0  0
M  END
>  <Mol_ID>
8480

>  <Formula>
C4H7N5O

>  <MolWeight>
141.13128

>  <Cat>
P3006

>  <Name>
WAY-637193

>  <Synonyms>
N/A

>  <Target>
Anti-infection

>  <Form>
free base

>  <CAS>
52553-11-4

>  <URL>
N/A

$$$$
