WAY-621737
 OpenBabel08302521443D

 35 36  0  0  0  0  0  0  0  0999 V2000
   -2.1638   -0.2390    0.2936 N   0  0  0  0  0  0  0  0  0  0  0  0
   -0.9645   -0.8517    0.1546 C   0  0  0  0  0  0  0  0  0  0  0  0
   -2.0454    1.1083    0.1294 C   0  0  0  0  0  0  0  0  0  0  0  0
   -0.6024    1.4178   -0.3043 C   0  0  3  0  0  0  0  0  0  0  0  0
   -0.0145    0.1037   -0.1218 N   0  0  0  0  0  0  0  0  0  0  0  0
    1.4424    1.2797    3.8618 C   0  0  0  0  0  0  0  0  0  0  0  0
    0.0492    2.5383    0.5232 C   0  0  0  0  0  0  0  0  0  0  0  0
   -0.7455   -2.0452    0.2493 O   0  0  0  0  0  0  0  0  0  0  0  0
   -2.9553    1.9138    0.2398 O   0  0  0  0  0  0  0  0  0  0  0  0
    0.4359    1.6844    4.7515 C   0  0  0  0  0  0  0  0  0  0  0  0
    1.3179    1.5990    2.5001 C   0  0  0  0  0  0  0  0  0  0  0  0
    0.1837    2.2597    2.0031 C   0  0  0  0  0  0  0  0  0  0  0  0
   -0.6939    2.3467    4.2544 C   0  0  0  0  0  0  0  0  0  0  0  0
   -0.8227    2.6339    2.8950 C   0  0  0  0  0  0  0  0  0  0  0  0
    2.5268    0.5977    4.3490 O   0  0  0  0  0  0  0  0  0  0  0  0
   -0.6141    1.7708   -1.7926 C   0  0  0  0  0  0  0  0  0  0  0  0
    0.3703    1.4518    6.1009 O   0  0  0  0  0  0  0  0  0  0  0  0
    3.1238   -0.3408    3.4587 C   0  0  0  0  0  0  0  0  0  0  0  0
    1.6034    1.3703    6.8033 C   0  0  0  0  0  0  0  0  0  0  0  0
   -3.0131   -0.7161    0.5422 H   0  0  0  0  0  0  0  0  0  0  0  0
    0.9404   -0.1617   -0.3208 H   0  0  0  0  0  0  0  0  0  0  0  0
    1.0527    2.7472    0.1264 H   0  0  0  0  0  0  0  0  0  0  0  0
   -0.5143    3.4729    0.3944 H   0  0  0  0  0  0  0  0  0  0  0  0
    2.1073    1.3374    1.8024 H   0  0  0  0  0  0  0  0  0  0  0  0
   -1.4844    2.6431    4.9408 H   0  0  0  0  0  0  0  0  0  0  0  0
   -1.7153    3.1504    2.5461 H   0  0  0  0  0  0  0  0  0  0  0  0
   -1.1131    0.9954   -2.3869 H   0  0  0  0  0  0  0  0  0  0  0  0
   -1.1457    2.7118   -1.9715 H   0  0  0  0  0  0  0  0  0  0  0  0
    0.4064    1.8720   -2.1784 H   0  0  0  0  0  0  0  0  0  0  0  0
    2.3725   -0.9653    2.9626 H   0  0  0  0  0  0  0  0  0  0  0  0
    3.7563    0.1699    2.7253 H   0  0  0  0  0  0  0  0  0  0  0  0
    3.7693   -0.9984    4.0483 H   0  0  0  0  0  0  0  0  0  0  0  0
    2.0581    0.3816    6.6864 H   0  0  0  0  0  0  0  0  0  0  0  0
    2.2913    2.1717    6.5150 H   0  0  0  0  0  0  0  0  0  0  0  0
    1.3819    1.4939    7.8671 H   0  0  0  0  0  0  0  0  0  0  0  0
  1 20  1  0  0  0  0
  2  1  1  0  0  0  0
  3  1  1  0  0  0  0
  4  3  1  0  0  0  0
  4  5  1  0  0  0  0
  5  2  1  0  0  0  0
  5 21  1  0  0  0  0
  6 11  2  0  0  0  0
  6 10  1  0  0  0  0
  7  4  1  0  0  0  0
  7 22  1  0  0  0  0
  7 23  1  0  0  0  0
  8  2  2  0  0  0  0
  9  3  2  0  0  0  0
 10 13  2  0  0  0  0
 11 12  1  0  0  0  0
 11 24  1  0  0  0  0
 12  7  1  0  0  0  0
 13 14  1  0  0  0  0
 13 25  1  0  0  0  0
 14 12  2  0  0  0  0
 14 26  1  0  0  0  0
 15  6  1  0  0  0  0
 16  4  1  0  0  0  0
 16 27  1  0  0  0  0
 16 28  1  0  0  0  0
 16 29  1  0  0  0  0
 17 10  1  0  0  0  0
 18 15  1  0  0  0  0
 18 30  1  0  0  0  0
 18 31  1  0  0  0  0
 18 32  1  0  0  0  0
 19 17  1  0  0  0  0
 19 33  1  0  0  0  0
 19 34  1  0  0  0  0
 19 35  1  0  0  0  0
M  END
>  <Mol_ID>
9054

>  <Formula>
C13H16N2O4

>  <MolWeight>
264.27714

>  <Cat>
P2975

>  <Name>
WAY-621737

>  <Synonyms>
N/A

>  <Target>
Others

>  <Form>
free base

>  <CAS>
892-02-4

>  <URL>
N/A

$$$$
