WAY-620472
 OpenBabel08302521433D

 51 55  0  0  0  0  0  0  0  0999 V2000
   -0.2865    1.1055   -0.0538 C   0  0  0  0  0  0  0  0  0  0  0  0
   -0.8617   -0.0918    0.4509 C   0  0  0  0  0  0  0  0  0  0  0  0
   -0.3353   -1.1756   -0.1360 N   0  0  0  0  0  0  0  0  0  0  0  0
    0.6057   -0.7135   -0.9798 N   0  0  0  0  0  0  0  0  0  0  0  0
    0.6069    0.6568   -1.0155 C   0  0  0  0  0  0  0  0  0  0  0  0
   -0.6359    2.4962    0.1959 C   0  0  0  0  0  0  0  0  0  0  0  0
    0.3808    3.4508    0.1537 N   0  0  0  0  0  0  0  0  0  0  0  0
   -1.9058   -0.3013    1.5131 C   0  0  0  0  0  0  0  0  0  0  0  0
    2.3490    5.5012   -0.0684 N   0  0  0  0  0  0  0  0  0  0  0  0
    3.2531    6.4765   -0.5039 C   0  0  0  0  0  0  0  0  0  0  0  0
   -2.2940    0.7741    2.7772 S   0  0  0  0  0  0  0  0  0  0  0  0
    4.0267    6.2751   -1.5918 N   0  0  0  0  0  0  0  0  0  0  0  0
    1.4373   -1.6177   -1.6945 C   0  0  0  0  0  0  0  0  0  0  0  0
   -1.8145    2.8194    0.3513 O   0  0  0  0  0  0  0  0  0  0  0  0
   -0.0009    4.8649    0.3034 C   0  0  0  0  0  0  0  0  0  0  0  0
    1.8070    3.1858    0.4298 C   0  0  0  0  0  0  0  0  0  0  0  0
    2.7168    4.1162   -0.3994 C   0  0  0  0  0  0  0  0  0  0  0  0
    0.9556    5.8109   -0.4511 C   0  0  0  0  0  0  0  0  0  0  0  0
   -2.6437   -1.4684    1.5987 C   0  0  0  0  0  0  0  0  0  0  0  0
   -3.4137   -0.3282    3.4611 C   0  0  0  0  0  0  0  0  0  0  0  0
   -3.5273   -1.4785    2.7140 C   0  0  0  0  0  0  0  0  0  0  0  0
    3.3522    7.6411    0.2565 C   0  0  0  0  0  0  0  0  0  0  0  0
    4.8918    7.2620   -1.9321 C   0  0  0  0  0  0  0  0  0  0  0  0
    2.3975   -1.1631   -2.6078 C   0  0  0  0  0  0  0  0  0  0  0  0
    1.2985   -2.9969   -1.4663 C   0  0  0  0  0  0  0  0  0  0  0  0
    4.2618    8.6315   -0.0996 C   0  0  0  0  0  0  0  0  0  0  0  0
    5.0486    8.4414   -1.2244 C   0  0  0  0  0  0  0  0  0  0  0  0
    2.1052   -3.9087   -2.1469 C   0  0  0  0  0  0  0  0  0  0  0  0
    3.2009   -2.0835   -3.2869 C   0  0  0  0  0  0  0  0  0  0  0  0
    3.0545   -3.4512   -3.0573 C   0  0  0  0  0  0  0  0  0  0  0  0
    1.2294    1.2108   -1.7008 H   0  0  0  0  0  0  0  0  0  0  0  0
   -1.0263    5.0307   -0.0426 H   0  0  0  0  0  0  0  0  0  0  0  0
    0.0277    5.0885    1.3772 H   0  0  0  0  0  0  0  0  0  0  0  0
    1.9539    3.3842    1.4995 H   0  0  0  0  0  0  0  0  0  0  0  0
    2.0867    2.1453    0.2755 H   0  0  0  0  0  0  0  0  0  0  0  0
    2.5791    3.9135   -1.4705 H   0  0  0  0  0  0  0  0  0  0  0  0
    3.7618    3.9122   -0.1385 H   0  0  0  0  0  0  0  0  0  0  0  0
    0.8240    5.6760   -1.5338 H   0  0  0  0  0  0  0  0  0  0  0  0
    0.6893    6.8462   -0.2079 H   0  0  0  0  0  0  0  0  0  0  0  0
   -2.5586   -2.2749    0.8792 H   0  0  0  0  0  0  0  0  0  0  0  0
   -3.9410   -0.0766    4.3705 H   0  0  0  0  0  0  0  0  0  0  0  0
   -4.1973   -2.2937    2.9578 H   0  0  0  0  0  0  0  0  0  0  0  0
    2.7409    7.7553    1.1460 H   0  0  0  0  0  0  0  0  0  0  0  0
    5.4819    7.0718   -2.8245 H   0  0  0  0  0  0  0  0  0  0  0  0
    2.5459   -0.1092   -2.8186 H   0  0  0  0  0  0  0  0  0  0  0  0
    0.5669   -3.3765   -0.7546 H   0  0  0  0  0  0  0  0  0  0  0  0
    4.3569    9.5268    0.5055 H   0  0  0  0  0  0  0  0  0  0  0  0
    5.7663    9.1911   -1.5353 H   0  0  0  0  0  0  0  0  0  0  0  0
    1.9894   -4.9736   -1.9629 H   0  0  0  0  0  0  0  0  0  0  0  0
    3.9438   -1.7339   -3.9999 H   0  0  0  0  0  0  0  0  0  0  0  0
    3.6811   -4.1629   -3.5886 H   0  0  0  0  0  0  0  0  0  0  0  0
  2  1  1  0  0  0  0
  3  2  2  0  0  0  0
  4  5  1  0  0  0  0
  4  3  1  0  0  0  0
  5  1  2  0  0  0  0
  5 31  1  0  0  0  0
  6  1  1  0  0  0  0
  7  6  1  0  0  0  0
  8  2  1  0  0  0  0
  9 17  1  0  0  0  0
 10  9  1  0  0  0  0
 11  8  1  0  0  0  0
 12 10  2  0  0  0  0
 13  4  1  0  0  0  0
 14  6  2  0  0  0  0
 15  7  1  0  0  0  0
 15 32  1  0  0  0  0
 15 33  1  0  0  0  0
 16  7  1  0  0  0  0
 16 34  1  0  0  0  0
 16 35  1  0  0  0  0
 17 16  1  0  0  0  0
 17 36  1  0  0  0  0
 17 37  1  0  0  0  0
 18 15  1  0  0  0  0
 18  9  1  0  0  0  0
 18 38  1  0  0  0  0
 18 39  1  0  0  0  0
 19  8  2  0  0  0  0
 19 40  1  0  0  0  0
 20 11  1  0  0  0  0
 20 41  1  0  0  0  0
 21 19  1  0  0  0  0
 21 20  2  0  0  0  0
 21 42  1  0  0  0  0
 22 10  1  0  0  0  0
 22 43  1  0  0  0  0
 23 12  1  0  0  0  0
 23 27  2  0  0  0  0
 23 44  1  0  0  0  0
 24 13  2  0  0  0  0
 24 45  1  0  0  0  0
 25 13  1  0  0  0  0
 25 46  1  0  0  0  0
 26 22  2  0  0  0  0
 26 47  1  0  0  0  0
 27 26  1  0  0  0  0
 27 48  1  0  0  0  0
 28 25  2  0  0  0  0
 28 49  1  0  0  0  0
 29 24  1  0  0  0  0
 29 30  2  0  0  0  0
 29 50  1  0  0  0  0
 30 28  1  0  0  0  0
 30 51  1  0  0  0  0
M  END
>  <Mol_ID>
8775

>  <Formula>
C23H21N5OS

>  <MolWeight>
415.51074

>  <Cat>
P2946

>  <Name>
WAY-620472

>  <Synonyms>
N/A

>  <Target>
PPAR

>  <Form>
free base

>  <CAS>
686769-90-4

>  <URL>
N/A

$$$$
