WAY-325331
 OpenBabel08302521423D

 36 38  0  0  0  0  0  0  0  0999 V2000
   -2.1031   -1.6455   -3.2384 C   0  0  0  0  0  0  0  0  0  0  0  0
   -1.2417   -1.4445   -2.1911 O   0  0  0  0  0  0  0  0  0  0  0  0
   -1.7389   -1.2201   -4.5728 C   0  0  0  0  0  0  0  0  0  0  0  0
   -3.2411   -2.2763   -2.7680 C   0  0  0  0  0  0  0  0  0  0  0  0
   -1.8201   -1.9601   -1.0649 C   0  0  0  0  0  0  0  0  0  0  0  0
   -3.0621   -2.4721   -1.3758 C   0  0  0  0  0  0  0  0  0  0  0  0
   -0.8384   -3.3292    4.6673 C   0  0  0  0  0  0  0  0  0  0  0  0
    0.0145   -2.2855    5.0397 C   0  0  0  0  0  0  0  0  0  0  0  0
   -1.3948   -3.3770    3.3955 C   0  0  0  0  0  0  0  0  0  0  0  0
   -2.4247   -1.3693   -5.5762 O   0  0  0  0  0  0  0  0  0  0  0  0
    0.3209   -1.2683    4.1564 C   0  0  0  0  0  0  0  0  0  0  0  0
   -1.0969   -2.3511    2.4879 C   0  0  0  0  0  0  0  0  0  0  0  0
   -1.7191   -2.4362    1.2645 O   0  0  0  0  0  0  0  0  0  0  0  0
   -1.0075   -1.8332    0.1780 C   0  0  0  0  0  0  0  0  0  0  0  0
   -0.5084   -0.6265   -4.5638 O   0  0  0  0  0  0  0  0  0  0  0  0
   -0.2522   -1.2970    2.8805 C   0  0  0  0  0  0  0  0  0  0  0  0
   -0.9953   -4.3029    5.7956 C   0  0  0  0  0  0  0  0  0  0  0  0
   -0.5328   -3.4499    6.9887 C   0  0  0  0  0  0  0  0  0  0  0  0
    0.5091   -2.4653    6.4401 C   0  0  0  0  0  0  0  0  0  0  0  0
   -0.0413   -0.2138   -5.8468 C   0  0  0  0  0  0  0  0  0  0  0  0
   -4.0940   -2.5630   -3.3711 H   0  0  0  0  0  0  0  0  0  0  0  0
   -3.7492   -2.9347   -0.6801 H   0  0  0  0  0  0  0  0  0  0  0  0
   -2.0502   -4.1928    3.1069 H   0  0  0  0  0  0  0  0  0  0  0  0
    0.9746   -0.4527    4.4485 H   0  0  0  0  0  0  0  0  0  0  0  0
   -0.0498   -2.3478    0.0377 H   0  0  0  0  0  0  0  0  0  0  0  0
   -0.8444   -0.7648    0.3477 H   0  0  0  0  0  0  0  0  0  0  0  0
   -0.0378   -0.4611    2.2238 H   0  0  0  0  0  0  0  0  0  0  0  0
   -0.3363   -5.1652    5.6510 H   0  0  0  0  0  0  0  0  0  0  0  0
   -2.0287   -4.6357    5.9245 H   0  0  0  0  0  0  0  0  0  0  0  0
   -1.3900   -2.8826    7.3786 H   0  0  0  0  0  0  0  0  0  0  0  0
   -0.1442   -4.0531    7.8151 H   0  0  0  0  0  0  0  0  0  0  0  0
    0.5120   -1.5297    7.0060 H   0  0  0  0  0  0  0  0  0  0  0  0
    1.5104   -2.9066    6.4360 H   0  0  0  0  0  0  0  0  0  0  0  0
    0.0694   -1.0785   -6.5087 H   0  0  0  0  0  0  0  0  0  0  0  0
   -0.7142    0.5290   -6.2859 H   0  0  0  0  0  0  0  0  0  0  0  0
    0.9420    0.2471   -5.7154 H   0  0  0  0  0  0  0  0  0  0  0  0
  2  1  1  0  0  0  0
  3  1  1  0  0  0  0
  4  1  2  0  0  0  0
  4 21  1  0  0  0  0
  5  2  1  0  0  0  0
  5  6  2  0  0  0  0
  6  4  1  0  0  0  0
  6 22  1  0  0  0  0
  7  9  2  0  0  0  0
  7  8  1  0  0  0  0
  8 11  2  0  0  0  0
  9 12  1  0  0  0  0
  9 23  1  0  0  0  0
 10  3  2  0  0  0  0
 11 16  1  0  0  0  0
 11 24  1  0  0  0  0
 12 13  1  0  0  0  0
 13 14  1  0  0  0  0
 14  5  1  0  0  0  0
 14 25  1  0  0  0  0
 14 26  1  0  0  0  0
 15  3  1  0  0  0  0
 16 12  2  0  0  0  0
 16 27  1  0  0  0  0
 17  7  1  0  0  0  0
 17 28  1  0  0  0  0
 17 29  1  0  0  0  0
 18 17  1  0  0  0  0
 18 30  1  0  0  0  0
 18 31  1  0  0  0  0
 19  8  1  0  0  0  0
 19 18  1  0  0  0  0
 19 32  1  0  0  0  0
 19 33  1  0  0  0  0
 20 15  1  0  0  0  0
 20 34  1  0  0  0  0
 20 35  1  0  0  0  0
 20 36  1  0  0  0  0
M  END
>  <Mol_ID>
8680

>  <Formula>
C16H16O4

>  <MolWeight>
272.29584

>  <Cat>
P2379

>  <Name>
WAY-325331

>  <Synonyms>
N/A

>  <Target>
Others

>  <Form>
free base

>  <CAS>
402737-26-2

>  <URL>
N/A

$$$$
