WAY-327947
 OpenBabel08302521443D

 57 59  0  0  0  0  0  0  0  0999 V2000
    1.1393   -0.0036    0.1330 S   0  0  0  0  0  0  0  0  0  0  0  0
   -2.2002    3.2549    2.6862 C   0  0  0  0  0  0  0  0  0  0  0  0
   -1.0218    3.0388    1.7959 C   0  0  0  0  0  0  0  0  0  0  0  0
    0.5799    1.6332    0.6037 C   0  0  0  0  0  0  0  0  0  0  0  0
    2.3081   -0.3837    1.3334 N   0  0  0  0  0  0  0  0  0  0  0  0
   -0.7322    5.4446    1.6905 N   0  0  0  0  0  0  0  0  0  0  0  0
   -1.7912    5.6907    2.5123 C   0  0  0  0  0  0  0  0  0  0  0  0
   -0.3192    4.1612    1.3221 C   0  0  0  0  0  0  0  0  0  0  0  0
   -2.5259    4.5155    3.0264 C   0  0  0  0  0  0  0  0  0  0  0  0
   -0.5644    1.7716    1.4010 C   0  0  0  0  0  0  0  0  0  0  0  0
   -2.9434    2.1140    3.3240 C   0  0  0  0  0  0  0  0  0  0  0  0
    1.8112    0.1299   -1.1405 O   0  0  0  0  0  0  0  0  0  0  0  0
    0.0182   -0.9101    0.2896 O   0  0  0  0  0  0  0  0  0  0  0  0
    1.2444    2.7579    0.1171 C   0  0  0  0  0  0  0  0  0  0  0  0
    0.7938    4.0285    0.4824 C   0  0  0  0  0  0  0  0  0  0  0  0
   -2.1274    6.8255    2.8272 O   0  0  0  0  0  0  0  0  0  0  0  0
   -2.3975    1.0267    3.5114 O   0  0  0  0  0  0  0  0  0  0  0  0
   -4.2525    2.3242    3.6982 N   0  0  0  0  0  0  0  0  0  0  0  0
   -5.1874    2.8497    6.5026 N   0  0  0  0  0  0  0  0  0  0  0  0
    3.5719    0.3808    1.2751 C   0  0  0  0  0  0  0  0  0  0  0  0
    1.7462   -0.7200    2.6685 C   0  0  0  0  0  0  0  0  0  0  0  0
   -4.9467    1.3232    4.4919 C   0  0  0  0  0  0  0  0  0  0  0  0
   -4.7230    1.5330    6.0039 C   0  0  0  0  0  0  0  0  0  0  0  0
   -6.6355    3.0050    6.3441 C   0  0  0  0  0  0  0  0  0  0  0  0
   -4.8396    2.9894    7.9225 C   0  0  0  0  0  0  0  0  0  0  0  0
    4.7792   -0.5341    1.4757 C   0  0  0  0  0  0  0  0  0  0  0  0
    2.7264   -0.7042    3.8375 C   0  0  0  0  0  0  0  0  0  0  0  0
    5.0837   -0.8688    2.9307 C   0  0  0  0  0  0  0  0  0  0  0  0
    3.9529   -1.5897    3.6532 C   0  0  0  0  0  0  0  0  0  0  0  0
   -0.2367    6.2619    1.3566 H   0  0  0  0  0  0  0  0  0  0  0  0
   -3.3165    4.7745    3.7209 H   0  0  0  0  0  0  0  0  0  0  0  0
   -1.0798    0.8667    1.7122 H   0  0  0  0  0  0  0  0  0  0  0  0
    2.0992    2.6586   -0.5470 H   0  0  0  0  0  0  0  0  0  0  0  0
    1.3154    4.9055    0.1058 H   0  0  0  0  0  0  0  0  0  0  0  0
   -4.6659    3.2430    3.6818 H   0  0  0  0  0  0  0  0  0  0  0  0
    3.5618    1.2165    1.9788 H   0  0  0  0  0  0  0  0  0  0  0  0
    3.6905    0.8179    0.2771 H   0  0  0  0  0  0  0  0  0  0  0  0
    1.3047   -1.7222    2.5997 H   0  0  0  0  0  0  0  0  0  0  0  0
    0.9387   -0.0271    2.9212 H   0  0  0  0  0  0  0  0  0  0  0  0
   -6.0076    1.3676    4.2285 H   0  0  0  0  0  0  0  0  0  0  0  0
   -4.5956    0.3233    4.2127 H   0  0  0  0  0  0  0  0  0  0  0  0
   -5.2104    0.7178    6.5538 H   0  0  0  0  0  0  0  0  0  0  0  0
   -3.6445    1.4490    6.1969 H   0  0  0  0  0  0  0  0  0  0  0  0
   -7.1931    2.2125    6.8558 H   0  0  0  0  0  0  0  0  0  0  0  0
   -6.9635    3.9724    6.7395 H   0  0  0  0  0  0  0  0  0  0  0  0
   -6.9206    3.0064    5.2880 H   0  0  0  0  0  0  0  0  0  0  0  0
   -5.2918    2.2024    8.5380 H   0  0  0  0  0  0  0  0  0  0  0  0
   -3.7536    2.9572    8.0626 H   0  0  0  0  0  0  0  0  0  0  0  0
   -5.1761    3.9588    8.3079 H   0  0  0  0  0  0  0  0  0  0  0  0
    5.6622   -0.0244    1.0698 H   0  0  0  0  0  0  0  0  0  0  0  0
    4.6608   -1.4601    0.8999 H   0  0  0  0  0  0  0  0  0  0  0  0
    2.1818   -1.0589    4.7221 H   0  0  0  0  0  0  0  0  0  0  0  0
    3.0278    0.3244    4.0690 H   0  0  0  0  0  0  0  0  0  0  0  0
    5.9803   -1.5002    2.9633 H   0  0  0  0  0  0  0  0  0  0  0  0
    5.3389    0.0512    3.4720 H   0  0  0  0  0  0  0  0  0  0  0  0
    3.6936   -2.5217    3.1375 H   0  0  0  0  0  0  0  0  0  0  0  0
    4.3234   -1.8738    4.6465 H   0  0  0  0  0  0  0  0  0  0  0  0
  2  3  1  0  0  0  0
  3 10  2  0  0  0  0
  4  1  1  0  0  0  0
  5  1  1  0  0  0  0
  6  8  1  0  0  0  0
  6 30  1  0  0  0  0
  7  6  1  0  0  0  0
  8 15  2  0  0  0  0
  8  3  1  0  0  0  0
  9  2  2  0  0  0  0
  9  7  1  0  0  0  0
  9 31  1  0  0  0  0
 10  4  1  0  0  0  0
 10 32  1  0  0  0  0
 11  2  1  0  0  0  0
 12  1  2  0  0  0  0
 13  1  2  0  0  0  0
 14  4  2  0  0  0  0
 14 33  1  0  0  0  0
 15 14  1  0  0  0  0
 15 34  1  0  0  0  0
 16  7  2  0  0  0  0
 17 11  2  0  0  0  0
 18 11  1  0  0  0  0
 18 35  1  0  0  0  0
 19 23  1  0  0  0  0
 20  5  1  0  0  0  0
 20 36  1  0  0  0  0
 20 37  1  0  0  0  0
 21  5  1  0  0  0  0
 21 38  1  0  0  0  0
 21 39  1  0  0  0  0
 22 18  1  0  0  0  0
 22 40  1  0  0  0  0
 22 41  1  0  0  0  0
 23 22  1  0  0  0  0
 23 42  1  0  0  0  0
 23 43  1  0  0  0  0
 24 19  1  0  0  0  0
 24 44  1  0  0  0  0
 24 45  1  0  0  0  0
 24 46  1  0  0  0  0
 25 19  1  0  0  0  0
 25 47  1  0  0  0  0
 25 48  1  0  0  0  0
 25 49  1  0  0  0  0
 26 20  1  0  0  0  0
 26 50  1  0  0  0  0
 26 51  1  0  0  0  0
 27 21  1  0  0  0  0
 27 52  1  0  0  0  0
 27 53  1  0  0  0  0
 28 26  1  0  0  0  0
 28 54  1  0  0  0  0
 28 55  1  0  0  0  0
 29 27  1  0  0  0  0
 29 28  1  0  0  0  0
 29 56  1  0  0  0  0
 29 57  1  0  0  0  0
M  END
>  <Mol_ID>
8987

>  <Formula>
C20H28N4O4S

>  <MolWeight>
420.52572

>  <Cat>
P2550

>  <Name>
WAY-327947

>  <Synonyms>
N/A

>  <Target>
caspase

>  <Form>
free base

>  <CAS>
687590-08-5

>  <URL>
N/A

$$$$
