WAY-325282
 OpenBabel08302521423D

 24 25  0  0  0  0  0  0  0  0999 V2000
    3.2340    2.9828    2.5131 N   0  0  0  0  0  0  0  0  0  0  0  0
    3.3100    1.8727    1.7134 C   0  0  0  0  0  0  0  0  0  0  0  0
    3.7883    2.5895    3.6308 C   0  0  0  0  0  0  0  0  0  0  0  0
    3.8929    0.8083    2.2789 N   0  0  0  0  0  0  0  0  0  0  0  0
    4.1996    1.2926    3.4939 N   0  0  0  0  0  0  0  0  0  0  0  0
    2.6784    1.8022    0.0843 S   0  0  0  0  0  0  0  0  0  0  0  0
    1.1878    3.7343   -1.3036 C   0  0  0  0  0  0  0  0  0  0  0  0
    1.9456    3.4525   -0.0240 C   0  0  0  0  0  0  0  0  0  0  0  0
    0.0625    2.9819   -1.6753 C   0  0  0  0  0  0  0  0  0  0  0  0
    3.9552    3.2928    4.7630 N   0  0  0  0  0  0  0  0  0  0  0  0
    1.5339    4.8490   -2.0847 C   0  0  0  0  0  0  0  0  0  0  0  0
   -0.7064    3.3506   -2.7836 C   0  0  0  0  0  0  0  0  0  0  0  0
    0.7634    5.2175   -3.1896 C   0  0  0  0  0  0  0  0  0  0  0  0
   -0.3625    4.4741   -3.5332 C   0  0  0  0  0  0  0  0  0  0  0  0
    4.6767    0.7052    4.1667 H   0  0  0  0  0  0  0  0  0  0  0  0
    1.2526    3.6067    0.8111 H   0  0  0  0  0  0  0  0  0  0  0  0
    2.7561    4.1820    0.0861 H   0  0  0  0  0  0  0  0  0  0  0  0
   -0.2377    2.1135   -1.0924 H   0  0  0  0  0  0  0  0  0  0  0  0
    4.0536    2.8384    5.6625 H   0  0  0  0  0  0  0  0  0  0  0  0
    3.4620    4.1800    4.8144 H   0  0  0  0  0  0  0  0  0  0  0  0
    2.3967    5.4573   -1.8217 H   0  0  0  0  0  0  0  0  0  0  0  0
   -1.5851    2.7699   -3.0529 H   0  0  0  0  0  0  0  0  0  0  0  0
    1.0338    6.0953   -3.7708 H   0  0  0  0  0  0  0  0  0  0  0  0
   -0.9744    4.7738   -4.3800 H   0  0  0  0  0  0  0  0  0  0  0  0
  2  1  1  0  0  0  0
  3  1  2  0  0  0  0
  4  2  2  0  0  0  0
  4  5  1  0  0  0  0
  5  3  1  0  0  0  0
  5 15  1  0  0  0  0
  6  2  1  0  0  0  0
  7  8  1  0  0  0  0
  8  6  1  0  0  0  0
  8 16  1  0  0  0  0
  8 17  1  0  0  0  0
  9  7  2  0  0  0  0
  9 18  1  0  0  0  0
 10  3  1  0  0  0  0
 10 19  1  0  0  0  0
 10 20  1  0  0  0  0
 11  7  1  0  0  0  0
 11 21  1  0  0  0  0
 12  9  1  0  0  0  0
 12 14  2  0  0  0  0
 12 22  1  0  0  0  0
 13 11  2  0  0  0  0
 13 23  1  0  0  0  0
 14 13  1  0  0  0  0
 14 24  1  0  0  0  0
M  END
>  <Mol_ID>
8677

>  <Formula>
C9H9ClN4S

>  <MolWeight>
240.71256

>  <Cat>
P2376

>  <Name>
WAY-325282

>  <Synonyms>
N/A

>  <Target>
RpMetAP,methionine aminopeptidase 2

>  <Form>
free base

>  <CAS>
341944-06-7

>  <URL>
N/A

$$$$
