WAY-641018
 OpenBabel08302521443D

 27 29  0  0  0  0  0  0  0  0999 V2000
    0.0907   -0.7431    0.1240 C   0  0  0  0  0  0  0  0  0  0  0  0
    0.1893    0.6340    0.0787 C   0  0  0  0  0  0  0  0  0  0  0  0
   -1.0510   -1.4863    0.1459 N   0  0  0  0  0  0  0  0  0  0  0  0
   -1.0528    1.3764    0.0630 C   0  0  0  0  0  0  0  0  0  0  0  0
   -2.1504   -0.7957    0.1115 C   0  0  0  0  0  0  0  0  0  0  0  0
   -2.1707    0.5847    0.0863 N   0  0  0  0  0  0  0  0  0  0  0  0
    1.6251   -1.4781    0.1134 S   0  0  0  0  0  0  0  0  0  0  0  0
    1.5512    1.1042    0.0407 C   0  0  0  0  0  0  0  0  0  0  0  0
    2.4323    0.0317    0.0470 C   0  0  0  0  0  0  0  0  0  0  0  0
   -3.4498   -1.4513    0.0716 C   0  0  0  0  0  0  0  0  0  0  0  0
   -4.8951   -0.5226   -0.0215 S   0  0  0  0  0  0  0  0  0  0  0  0
   -1.1449    2.5980    0.0183 O   0  0  0  0  0  0  0  0  0  0  0  0
   -3.7356   -2.8054    0.0739 C   0  0  0  0  0  0  0  0  0  0  0  0
   -5.8765   -1.9131   -0.0954 C   0  0  0  0  0  0  0  0  0  0  0  0
   -5.1362   -3.0695   -0.0233 C   0  0  0  0  0  0  0  0  0  0  0  0
    1.9806    2.5379   -0.0050 C   0  0  0  0  0  0  0  0  0  0  0  0
    3.9259    0.0454    0.0046 C   0  0  0  0  0  0  0  0  0  0  0  0
   -3.0557    1.0677    0.0527 H   0  0  0  0  0  0  0  0  0  0  0  0
   -2.9728   -3.5753    0.1261 H   0  0  0  0  0  0  0  0  0  0  0  0
   -6.9492   -1.8131   -0.1868 H   0  0  0  0  0  0  0  0  0  0  0  0
   -5.5770   -4.0584   -0.0492 H   0  0  0  0  0  0  0  0  0  0  0  0
    2.5926    2.7727    0.8724 H   0  0  0  0  0  0  0  0  0  0  0  0
    2.5771    2.7263   -0.9039 H   0  0  0  0  0  0  0  0  0  0  0  0
    1.1443    3.2378   -0.0157 H   0  0  0  0  0  0  0  0  0  0  0  0
    4.3407   -0.4581    0.8838 H   0  0  0  0  0  0  0  0  0  0  0  0
    4.2915   -0.4597   -0.8954 H   0  0  0  0  0  0  0  0  0  0  0  0
    4.3195    1.0666   -0.0069 H   0  0  0  0  0  0  0  0  0  0  0  0
  2  1  2  0  0  0  0
  3  1  1  0  0  0  0
  4  2  1  0  0  0  0
  5  3  2  0  0  0  0
  6  5  1  0  0  0  0
  6  4  1  0  0  0  0
  6 18  1  0  0  0  0
  7  1  1  0  0  0  0
  8  2  1  0  0  0  0
  8  9  2  0  0  0  0
  9  7  1  0  0  0  0
 10  5  1  0  0  0  0
 11 10  1  0  0  0  0
 12  4  2  0  0  0  0
 13 10  2  0  0  0  0
 13 19  1  0  0  0  0
 14 11  1  0  0  0  0
 14 15  2  0  0  0  0
 14 20  1  0  0  0  0
 15 13  1  0  0  0  0
 15 21  1  0  0  0  0
 16  8  1  0  0  0  0
 16 22  1  0  0  0  0
 16 23  1  0  0  0  0
 16 24  1  0  0  0  0
 17  9  1  0  0  0  0
 17 25  1  0  0  0  0
 17 26  1  0  0  0  0
 17 27  1  0  0  0  0
M  END
>  <Mol_ID>
9113

>  <Formula>
C12H10N2OS2

>  <MolWeight>
262.3506

>  <Cat>
P3121

>  <Name>
WAY-641018

>  <Synonyms>
N/A

>  <Target>
FLT3

>  <Form>
free base

>  <CAS>
354562-75-7

>  <URL>
N/A

$$$$
