WAY-326820
 OpenBabel08302521433D

 64 68  0  0  0  0  0  0  0  0999 V2000
   -1.9919   -1.4999    0.0680 C   0  0  0  0  0  0  0  0  0  0  0  0
   -0.6960   -1.8607    0.0871 N   0  0  0  0  0  0  0  0  0  0  0  0
   -6.0595   -5.1082   -0.4849 C   0  0  0  0  0  0  0  0  0  0  0  0
   -2.9865   -2.4488    0.0436 N   0  0  0  0  0  0  0  0  0  0  0  0
   -5.1851   -4.0658   -0.5613 N   0  0  0  0  0  0  0  0  0  0  0  0
    3.3450    3.2730    0.4537 C   0  0  0  0  0  0  0  0  0  0  0  0
    0.2599   -0.9095    0.0670 C   0  0  0  0  0  0  0  0  0  0  0  0
   -0.0076    0.4803    0.0392 C   0  0  0  0  0  0  0  0  0  0  0  0
   -1.3674    0.8474    0.0111 C   0  0  0  0  0  0  0  0  0  0  0  0
    3.4845    1.9407    0.0343 N   0  0  0  0  0  0  0  0  0  0  0  0
   -2.3399   -0.1568    0.0117 C   0  0  0  0  0  0  0  0  0  0  0  0
    4.5525    4.1477    0.3951 C   0  0  0  0  0  0  0  0  0  0  0  0
    5.8509    3.6762    0.6159 C   0  0  0  0  0  0  0  0  0  0  0  0
    6.9823    4.4976    0.4385 C   0  0  0  0  0  0  0  0  0  0  0  0
   -7.1704   -4.9637    0.2559 N   0  0  0  0  0  0  0  0  0  0  0  0
   -5.7707   -6.2497   -1.1335 N   0  0  0  0  0  0  0  0  0  0  0  0
    2.4092    1.0001    0.0272 C   0  0  0  0  0  0  0  0  0  0  0  0
    1.0722    1.4023    0.0342 C   0  0  0  0  0  0  0  0  0  0  0  0
   -2.7336   -3.7719   -0.5298 C   0  0  0  0  0  0  0  0  0  0  0  0
   -4.1508   -2.3981    0.9461 C   0  0  0  0  0  0  0  0  0  0  0  0
   -5.4181   -2.8098    0.1521 C   0  0  0  0  0  0  0  0  0  0  0  0
   -3.9673   -4.1790   -1.3656 C   0  0  0  0  0  0  0  0  0  0  0  0
    8.2773    4.0178    0.5937 N   0  0  0  0  0  0  0  0  0  0  0  0
    2.3218    3.8039    0.8446 O   0  0  0  0  0  0  0  0  0  0  0  0
    1.5903   -1.2971    0.0413 C   0  0  0  0  0  0  0  0  0  0  0  0
    2.6548   -0.3765    0.0029 C   0  0  0  0  0  0  0  0  0  0  0  0
   -7.7847   -7.1957   -0.2820 C   0  0  0  0  0  0  0  0  0  0  0  0
   -6.6185   -7.2788   -1.0005 C   0  0  0  0  0  0  0  0  0  0  0  0
   -8.0161   -6.0012    0.3234 C   0  0  0  0  0  0  0  0  0  0  0  0
   -1.8236    2.2757   -0.0078 C   0  0  0  0  0  0  0  0  0  0  0  0
    4.3429    5.4835    0.0436 C   0  0  0  0  0  0  0  0  0  0  0  0
    6.7243    5.8284    0.0380 C   0  0  0  0  0  0  0  0  0  0  0  0
    5.4274    6.3196   -0.1520 C   0  0  0  0  0  0  0  0  0  0  0  0
    8.6038    2.6491    0.9825 C   0  0  0  0  0  0  0  0  0  0  0  0
    9.4187    4.9292    0.5346 C   0  0  0  0  0  0  0  0  0  0  0  0
    4.3995    1.6100   -0.2274 H   0  0  0  0  0  0  0  0  0  0  0  0
   -3.3921    0.1042   -0.0346 H   0  0  0  0  0  0  0  0  0  0  0  0
    5.9653    2.6400    0.8986 H   0  0  0  0  0  0  0  0  0  0  0  0
    0.8509    2.4659    0.0117 H   0  0  0  0  0  0  0  0  0  0  0  0
   -1.8513   -3.7834   -1.1765 H   0  0  0  0  0  0  0  0  0  0  0  0
   -2.5749   -4.4970    0.2772 H   0  0  0  0  0  0  0  0  0  0  0  0
   -3.9941   -3.0989    1.7791 H   0  0  0  0  0  0  0  0  0  0  0  0
   -4.2993   -1.4064    1.3902 H   0  0  0  0  0  0  0  0  0  0  0  0
   -5.6445   -2.0290   -0.5839 H   0  0  0  0  0  0  0  0  0  0  0  0
   -6.2732   -2.8633    0.8348 H   0  0  0  0  0  0  0  0  0  0  0  0
   -4.0640   -3.4993   -2.2216 H   0  0  0  0  0  0  0  0  0  0  0  0
   -3.8124   -5.1820   -1.7747 H   0  0  0  0  0  0  0  0  0  0  0  0
    1.8128   -2.3652    0.0375 H   0  0  0  0  0  0  0  0  0  0  0  0
    3.6553   -0.7953   -0.0105 H   0  0  0  0  0  0  0  0  0  0  0  0
   -8.4646   -8.0374   -0.2008 H   0  0  0  0  0  0  0  0  0  0  0  0
   -6.3173   -8.1950   -1.4990 H   0  0  0  0  0  0  0  0  0  0  0  0
   -8.9192   -5.8215    0.8961 H   0  0  0  0  0  0  0  0  0  0  0  0
   -1.4779    2.7976    0.8934 H   0  0  0  0  0  0  0  0  0  0  0  0
   -1.4536    2.7895   -0.8991 H   0  0  0  0  0  0  0  0  0  0  0  0
   -2.9182    2.3477   -0.0193 H   0  0  0  0  0  0  0  0  0  0  0  0
    3.3374    5.8565   -0.1409 H   0  0  0  0  0  0  0  0  0  0  0  0
    7.5313    6.5295   -0.1601 H   0  0  0  0  0  0  0  0  0  0  0  0
    5.2761    7.3433   -0.4885 H   0  0  0  0  0  0  0  0  0  0  0  0
    9.2756    2.2095    0.2376 H   0  0  0  0  0  0  0  0  0  0  0  0
    9.1157    2.6466    1.9504 H   0  0  0  0  0  0  0  0  0  0  0  0
    7.7576    1.9681    1.0703 H   0  0  0  0  0  0  0  0  0  0  0  0
    9.5026    5.3889   -0.4560 H   0  0  0  0  0  0  0  0  0  0  0  0
    9.3392    5.7099    1.2995 H   0  0  0  0  0  0  0  0  0  0  0  0
   10.3610    4.3983    0.7173 H   0  0  0  0  0  0  0  0  0  0  0  0
  2  1  2  0  0  0  0
  3  5  1  0  0  0  0
  4  1  1  0  0  0  0
  5 21  1  0  0  0  0
  5 22  1  0  0  0  0
  6 10  1  0  0  0  0
  7  2  1  0  0  0  0
  8  9  1  0  0  0  0
  8  7  2  0  0  0  0
  9 11  2  0  0  0  0
 10 17  1  0  0  0  0
 10 36  1  0  0  0  0
 11  1  1  0  0  0  0
 11 37  1  0  0  0  0
 12  6  1  0  0  0  0
 13 12  2  0  0  0  0
 13 38  1  0  0  0  0
 14 13  1  0  0  0  0
 14 32  2  0  0  0  0
 15  3  2  0  0  0  0
 16  3  1  0  0  0  0
 17 18  2  0  0  0  0
 17 26  1  0  0  0  0
 18  8  1  0  0  0  0
 18 39  1  0  0  0  0
 19  4  1  0  0  0  0
 19 40  1  0  0  0  0
 19 41  1  0  0  0  0
 20  4  1  0  0  0  0
 20 42  1  0  0  0  0
 20 43  1  0  0  0  0
 21 20  1  0  0  0  0
 21 44  1  0  0  0  0
 21 45  1  0  0  0  0
 22 19  1  0  0  0  0
 22 46  1  0  0  0  0
 22 47  1  0  0  0  0
 23 14  1  0  0  0  0
 24  6  2  0  0  0  0
 25  7  1  0  0  0  0
 25 48  1  0  0  0  0
 26 25  2  0  0  0  0
 26 49  1  0  0  0  0
 27 28  1  0  0  0  0
 27 29  2  0  0  0  0
 27 50  1  0  0  0  0
 28 16  2  0  0  0  0
 28 51  1  0  0  0  0
 29 15  1  0  0  0  0
 29 52  1  0  0  0  0
 30  9  1  0  0  0  0
 30 53  1  0  0  0  0
 30 54  1  0  0  0  0
 30 55  1  0  0  0  0
 31 12  1  0  0  0  0
 31 56  1  0  0  0  0
 32 33  1  0  0  0  0
 32 57  1  0  0  0  0
 33 31  2  0  0  0  0
 33 58  1  0  0  0  0
 34 23  1  0  0  0  0
 34 59  1  0  0  0  0
 34 60  1  0  0  0  0
 34 61  1  0  0  0  0
 35 23  1  0  0  0  0
 35 62  1  0  0  0  0
 35 63  1  0  0  0  0
 35 64  1  0  0  0  0
M  END
>  <Mol_ID>
8943

>  <Formula>
C27H29N7O

>  <MolWeight>
467.56546

>  <Cat>
P2502

>  <Name>
WAY-326820

>  <Synonyms>
N/A

>  <Target>
a-synuclein

>  <Form>
free base

>  <CAS>
892240-38-9

>  <URL>
N/A

$$$$
