WAY-327362
 OpenBabel08302521443D

 56 59  0  0  0  0  0  0  0  0999 V2000
    0.8869   -0.0864   -0.1984 S   0  0  0  0  0  0  0  0  0  0  0  0
    0.4072    6.2109   -0.0908 C   0  0  0  0  0  0  0  0  0  0  0  0
    1.4163    5.2668    0.0817 C   0  0  0  0  0  0  0  0  0  0  0  0
   -0.7689    5.5711   -0.4000 O   0  0  0  0  0  0  0  0  0  0  0  0
    0.8288    3.9851   -0.1642 C   0  0  0  0  0  0  0  0  0  0  0  0
    1.4592   -0.5109   -1.7434 N   0  0  0  0  0  0  0  0  0  0  0  0
    0.3612    1.6139   -0.4030 C   0  0  0  0  0  0  0  0  0  0  0  0
   -0.5089    4.2316   -0.4505 C   0  0  0  0  0  0  0  0  0  0  0  0
    0.4401    7.6726   -0.0124 C   0  0  0  0  0  0  0  0  0  0  0  0
    1.2812    2.6473   -0.1448 C   0  0  0  0  0  0  0  0  0  0  0  0
    2.0108   -0.0633    0.7172 O   0  0  0  0  0  0  0  0  0  0  0  0
   -0.2864   -0.8780    0.0996 O   0  0  0  0  0  0  0  0  0  0  0  0
   -0.7621    8.2792    0.2976 N   0  0  0  0  0  0  0  0  0  0  0  0
    0.4776   -0.7749   -2.8200 C   0  0  0  0  0  0  0  0  0  0  0  0
    2.5982   -1.4566   -1.8020 C   0  0  0  0  0  0  0  0  0  0  0  0
   -0.9821    1.8976   -0.6747 C   0  0  0  0  0  0  0  0  0  0  0  0
   -1.4399    3.2241   -0.7248 C   0  0  0  0  0  0  0  0  0  0  0  0
    1.4629    8.3249   -0.1857 O   0  0  0  0  0  0  0  0  0  0  0  0
   -0.9149    9.7217    0.3785 C   0  0  0  0  0  0  0  0  0  0  0  0
    2.8239    5.5077    0.4953 C   0  0  0  0  0  0  0  0  0  0  0  0
   -0.0621   -2.2045   -2.7603 C   0  0  0  0  0  0  0  0  0  0  0  0
    2.1264   -2.8947   -1.6412 C   0  0  0  0  0  0  0  0  0  0  0  0
   -1.2715   10.2080    1.7651 C   0  0  0  0  0  0  0  0  0  0  0  0
    1.0371   -3.2734   -2.6549 C   0  0  0  0  0  0  0  0  0  0  0  0
   -0.3793   10.0210    2.8322 C   0  0  0  0  0  0  0  0  0  0  0  0
   -2.4559   10.9234    2.0048 C   0  0  0  0  0  0  0  0  0  0  0  0
    0.4253   -4.6265   -2.2780 C   0  0  0  0  0  0  0  0  0  0  0  0
   -0.6649   10.5271    4.1034 C   0  0  0  0  0  0  0  0  0  0  0  0
   -2.7396   11.4333    3.2786 C   0  0  0  0  0  0  0  0  0  0  0  0
   -1.8433   11.2345    4.3261 C   0  0  0  0  0  0  0  0  0  0  0  0
    2.3170    2.4196    0.0996 H   0  0  0  0  0  0  0  0  0  0  0  0
   -1.5641    7.6886    0.4714 H   0  0  0  0  0  0  0  0  0  0  0  0
    0.9819   -0.6134   -3.7814 H   0  0  0  0  0  0  0  0  0  0  0  0
   -0.3443   -0.0549   -2.7874 H   0  0  0  0  0  0  0  0  0  0  0  0
    3.0985   -1.3290   -2.7703 H   0  0  0  0  0  0  0  0  0  0  0  0
    3.3513   -1.2102   -1.0469 H   0  0  0  0  0  0  0  0  0  0  0  0
   -1.6925    1.0871   -0.8308 H   0  0  0  0  0  0  0  0  0  0  0  0
   -2.4758    3.4597   -0.9342 H   0  0  0  0  0  0  0  0  0  0  0  0
   -0.0028   10.2343    0.0475 H   0  0  0  0  0  0  0  0  0  0  0  0
   -1.7055    9.9892   -0.3307 H   0  0  0  0  0  0  0  0  0  0  0  0
    2.9984    5.0613    1.4804 H   0  0  0  0  0  0  0  0  0  0  0  0
    3.5187    5.0538   -0.2163 H   0  0  0  0  0  0  0  0  0  0  0  0
    3.0633    6.5712    0.5701 H   0  0  0  0  0  0  0  0  0  0  0  0
   -0.6584   -2.3944   -3.6627 H   0  0  0  0  0  0  0  0  0  0  0  0
   -0.7553   -2.3038   -1.9185 H   0  0  0  0  0  0  0  0  0  0  0  0
    1.7577   -3.0463   -0.6198 H   0  0  0  0  0  0  0  0  0  0  0  0
    2.9847   -3.5672   -1.7675 H   0  0  0  0  0  0  0  0  0  0  0  0
    1.5076   -3.3749   -3.6427 H   0  0  0  0  0  0  0  0  0  0  0  0
    0.5583    9.4933    2.6682 H   0  0  0  0  0  0  0  0  0  0  0  0
   -3.1664   11.1086    1.2016 H   0  0  0  0  0  0  0  0  0  0  0  0
    1.1844   -5.4155   -2.2861 H   0  0  0  0  0  0  0  0  0  0  0  0
   -0.0102   -4.5927   -1.2722 H   0  0  0  0  0  0  0  0  0  0  0  0
   -0.3681   -4.9106   -2.9764 H   0  0  0  0  0  0  0  0  0  0  0  0
    0.0405   10.3766    4.9168 H   0  0  0  0  0  0  0  0  0  0  0  0
   -3.6557   11.9953    3.4518 H   0  0  0  0  0  0  0  0  0  0  0  0
   -2.0583   11.6371    5.3133 H   0  0  0  0  0  0  0  0  0  0  0  0
  2  3  2  0  0  0  0
  3  5  1  0  0  0  0
  4  8  1  0  0  0  0
  4  2  1  0  0  0  0
  5 10  2  0  0  0  0
  5  8  1  0  0  0  0
  6  1  1  0  0  0  0
  7  1  1  0  0  0  0
  8 17  2  0  0  0  0
  9  2  1  0  0  0  0
 10  7  1  0  0  0  0
 10 31  1  0  0  0  0
 11  1  2  0  0  0  0
 12  1  2  0  0  0  0
 13  9  1  0  0  0  0
 13 32  1  0  0  0  0
 14  6  1  0  0  0  0
 14 33  1  0  0  0  0
 14 34  1  0  0  0  0
 15  6  1  0  0  0  0
 15 35  1  0  0  0  0
 15 36  1  0  0  0  0
 16  7  2  0  0  0  0
 16 37  1  0  0  0  0
 17 16  1  0  0  0  0
 17 38  1  0  0  0  0
 18  9  2  0  0  0  0
 19 13  1  0  0  0  0
 19 39  1  0  0  0  0
 19 40  1  0  0  0  0
 20  3  1  0  0  0  0
 20 41  1  0  0  0  0
 20 42  1  0  0  0  0
 20 43  1  0  0  0  0
 21 14  1  0  0  0  0
 21 24  1  0  0  0  0
 21 44  1  0  0  0  0
 21 45  1  0  0  0  0
 22 15  1  0  0  0  0
 22 46  1  0  0  0  0
 22 47  1  0  0  0  0
 23 19  1  0  0  0  0
 24 22  1  0  0  0  0
 24 48  1  0  0  0  0
 25 23  2  0  0  0  0
 25 49  1  0  0  0  0
 26 23  1  0  0  0  0
 26 50  1  0  0  0  0
 27 24  1  0  0  0  0
 27 51  1  0  0  0  0
 27 52  1  0  0  0  0
 27 53  1  0  0  0  0
 28 25  1  0  0  0  0
 28 30  2  0  0  0  0
 28 54  1  0  0  0  0
 29 26  2  0  0  0  0
 29 55  1  0  0  0  0
 30 29  1  0  0  0  0
 30 56  1  0  0  0  0
M  END
>  <Mol_ID>
8964

>  <Formula>
C23H26N2O4S

>  <MolWeight>
426.52854

>  <Cat>
P2524

>  <Name>
WAY-327362

>  <Synonyms>
N/A

>  <Target>
calcium channel

>  <Form>
free base

>  <CAS>
687574-49-8

>  <URL>
N/A

$$$$
