WAY-663740
 OpenBabel08302521443D

 43 45  0  0  0  0  0  0  0  0999 V2000
   -0.1978   -1.5417   -0.5080 N   0  0  0  0  0  0  0  0  0  0  0  0
    1.0367   -0.9534   -0.2523 C   0  0  0  0  0  0  0  0  0  0  0  0
    0.9288    0.3552   -0.3247 N   0  0  0  0  0  0  0  0  0  0  0  0
   -0.3883    0.6707   -0.4752 N   0  0  0  0  0  0  0  0  0  0  0  0
   -1.0753   -0.4518   -0.4883 C   0  0  0  0  0  0  0  0  0  0  0  0
    4.5378   -2.9797   -1.1786 C   0  0  0  0  0  0  0  0  0  0  0  0
    5.5855   -2.3188   -1.8211 N   0  0  0  0  0  0  0  0  0  0  0  0
    2.5420   -1.7003    0.1720 S   0  0  0  0  0  0  0  0  0  0  0  0
   -0.5642   -2.8996   -0.7399 C   0  0  0  0  0  0  0  0  0  0  0  0
    3.0955   -2.4962   -1.3559 C   0  0  0  0  0  0  0  0  0  0  0  0
    4.7482   -3.9811   -0.4855 O   0  0  0  0  0  0  0  0  0  0  0  0
    7.9140   -1.0503   -2.9330 O   0  0  0  0  0  0  0  0  0  0  0  0
    0.0242   -3.9574   -0.0447 C   0  0  0  0  0  0  0  0  0  0  0  0
   -1.5640   -3.1844   -1.6853 C   0  0  0  0  0  0  0  0  0  0  0  0
   -2.0042   -4.4948   -1.8951 C   0  0  0  0  0  0  0  0  0  0  0  0
   -0.4212   -5.2715   -0.2575 C   0  0  0  0  0  0  0  0  0  0  0  0
   -1.4567   -5.5490   -1.1567 C   0  0  0  0  0  0  0  0  0  0  0  0
    6.9494   -2.7501   -1.4811 C   0  0  0  0  0  0  0  0  0  0  0  0
    5.5161   -0.9510   -2.3551 C   0  0  0  0  0  0  0  0  0  0  0  0
   -2.5516   -0.5054   -0.3133 C   0  0  0  0  0  0  0  0  0  0  0  0
    6.6122   -0.6742   -3.3986 C   0  0  0  0  0  0  0  0  0  0  0  0
    7.9432   -2.4444   -2.6028 C   0  0  0  0  0  0  0  0  0  0  0  0
   -1.9466   -6.9550   -1.3580 C   0  0  0  0  0  0  0  0  0  0  0  0
    2.4893   -3.3928   -1.5197 H   0  0  0  0  0  0  0  0  0  0  0  0
    2.9629   -1.8618   -2.2310 H   0  0  0  0  0  0  0  0  0  0  0  0
    0.7865   -3.8024    0.7128 H   0  0  0  0  0  0  0  0  0  0  0  0
   -2.0103   -2.4002   -2.2951 H   0  0  0  0  0  0  0  0  0  0  0  0
   -2.7836   -4.6874   -2.6280 H   0  0  0  0  0  0  0  0  0  0  0  0
    0.0375   -6.0807    0.3114 H   0  0  0  0  0  0  0  0  0  0  0  0
    7.2355   -2.2013   -0.5748 H   0  0  0  0  0  0  0  0  0  0  0  0
    6.9740   -3.8194   -1.2542 H   0  0  0  0  0  0  0  0  0  0  0  0
    5.6410   -0.2784   -1.4998 H   0  0  0  0  0  0  0  0  0  0  0  0
    4.5405   -0.7530   -2.8010 H   0  0  0  0  0  0  0  0  0  0  0  0
   -2.8228    0.0129    0.6140 H   0  0  0  0  0  0  0  0  0  0  0  0
   -3.0492    0.0111   -1.1392 H   0  0  0  0  0  0  0  0  0  0  0  0
   -2.9595   -1.5142   -0.2337 H   0  0  0  0  0  0  0  0  0  0  0  0
    6.4074   -1.2069   -4.3348 H   0  0  0  0  0  0  0  0  0  0  0  0
    6.6428    0.3956   -3.6278 H   0  0  0  0  0  0  0  0  0  0  0  0
    8.9600   -2.6932   -2.2839 H   0  0  0  0  0  0  0  0  0  0  0  0
    7.7221   -3.0340   -3.5007 H   0  0  0  0  0  0  0  0  0  0  0  0
   -1.3622   -7.4592   -2.1334 H   0  0  0  0  0  0  0  0  0  0  0  0
   -1.8753   -7.5297   -0.4281 H   0  0  0  0  0  0  0  0  0  0  0  0
   -3.0017   -6.9609   -1.6550 H   0  0  0  0  0  0  0  0  0  0  0  0
  2  1  1  0  0  0  0
  3  2  2  0  0  0  0
  3  4  1  0  0  0  0
  4  5  2  0  0  0  0
  5  1  1  0  0  0  0
  6 10  1  0  0  0  0
  7  6  1  0  0  0  0
  8  2  1  0  0  0  0
  9  1  1  0  0  0  0
 10  8  1  0  0  0  0
 10 24  1  0  0  0  0
 10 25  1  0  0  0  0
 11  6  2  0  0  0  0
 12 21  1  0  0  0  0
 12 22  1  0  0  0  0
 13  9  2  0  0  0  0
 13 26  1  0  0  0  0
 14  9  1  0  0  0  0
 14 27  1  0  0  0  0
 15 14  2  0  0  0  0
 15 28  1  0  0  0  0
 16 13  1  0  0  0  0
 16 29  1  0  0  0  0
 17 15  1  0  0  0  0
 17 16  2  0  0  0  0
 18  7  1  0  0  0  0
 18 30  1  0  0  0  0
 18 31  1  0  0  0  0
 19  7  1  0  0  0  0
 19 32  1  0  0  0  0
 19 33  1  0  0  0  0
 20  5  1  0  0  0  0
 20 34  1  0  0  0  0
 20 35  1  0  0  0  0
 20 36  1  0  0  0  0
 21 19  1  0  0  0  0
 21 37  1  0  0  0  0
 21 38  1  0  0  0  0
 22 18  1  0  0  0  0
 22 39  1  0  0  0  0
 22 40  1  0  0  0  0
 23 17  1  0  0  0  0
 23 41  1  0  0  0  0
 23 42  1  0  0  0  0
 23 43  1  0  0  0  0
M  END
>  <Mol_ID>
9186

>  <Formula>
C16H20N4O2S

>  <MolWeight>
332.4206

>  <Cat>
P3222

>  <Name>
WAY-663740

>  <Synonyms>
N/A

>  <Target>
HIV-1

>  <Form>
free base

>  <CAS>
876934-56-4

>  <URL>
N/A

$$$$
