WAY-608078
 OpenBabel08302521443D

 34 36  0  0  0  0  0  0  0  0999 V2000
   -2.5547   -4.5767    0.9352 N   0  0  0  0  0  0  0  0  0  0  0  0
   -2.5570   -4.1176   -0.2991 C   0  0  0  0  0  0  0  0  0  0  0  0
   -1.2080   -4.5822   -1.2604 S   0  0  0  0  0  0  0  0  0  0  0  0
   -1.4847   -5.4446    1.1196 C   0  0  0  0  0  0  0  0  0  0  0  0
   -0.6512   -5.6019    0.0087 C   0  0  0  0  0  0  0  0  0  0  0  0
   -3.3764   -1.5486   -2.4146 C   0  0  0  0  0  0  0  0  0  0  0  0
   -2.9660   -0.1381   -2.5803 C   0  0  0  0  0  0  0  0  0  0  0  0
   -2.6399    0.7067   -1.5899 C   0  0  0  0  0  0  0  0  0  0  0  0
   -3.7503   -2.2102   -3.3729 O   0  0  0  0  0  0  0  0  0  0  0  0
   -3.2641   -1.9862   -1.1392 O   0  0  0  0  0  0  0  0  0  0  0  0
   -3.6820   -3.3451   -0.9234 C   0  0  0  0  0  0  0  0  0  0  0  0
   -2.1734    2.0889   -1.8097 C   0  0  0  0  0  0  0  0  0  0  0  0
   -1.1943   -6.1797    2.2867 C   0  0  0  0  0  0  0  0  0  0  0  0
    0.4380   -6.4885    0.0161 C   0  0  0  0  0  0  0  0  0  0  0  0
   -2.4522    3.0689   -0.8472 C   0  0  0  0  0  0  0  0  0  0  0  0
   -1.3670    2.4395   -2.9032 C   0  0  0  0  0  0  0  0  0  0  0  0
   -0.1191   -7.0750    2.3015 C   0  0  0  0  0  0  0  0  0  0  0  0
    0.6818   -7.2339    1.1732 C   0  0  0  0  0  0  0  0  0  0  0  0
   -0.8482    3.7322   -3.0262 C   0  0  0  0  0  0  0  0  0  0  0  0
   -1.9329    4.3622   -0.9712 C   0  0  0  0  0  0  0  0  0  0  0  0
   -1.1245    4.6918   -2.0565 C   0  0  0  0  0  0  0  0  0  0  0  0
   -2.9538    0.1768   -3.6190 H   0  0  0  0  0  0  0  0  0  0  0  0
   -2.6919    0.3898   -0.5507 H   0  0  0  0  0  0  0  0  0  0  0  0
   -4.0114   -3.8583   -1.8349 H   0  0  0  0  0  0  0  0  0  0  0  0
   -4.5385   -3.3255   -0.2406 H   0  0  0  0  0  0  0  0  0  0  0  0
   -1.8252   -6.0647    3.1645 H   0  0  0  0  0  0  0  0  0  0  0  0
    1.0610   -6.6110   -0.8648 H   0  0  0  0  0  0  0  0  0  0  0  0
   -3.0724    2.8356    0.0157 H   0  0  0  0  0  0  0  0  0  0  0  0
   -1.1063    1.7065   -3.6626 H   0  0  0  0  0  0  0  0  0  0  0  0
    0.0861   -7.6610    3.1958 H   0  0  0  0  0  0  0  0  0  0  0  0
    1.5013   -7.9489    1.1869 H   0  0  0  0  0  0  0  0  0  0  0  0
   -0.2130    3.9832   -3.8726 H   0  0  0  0  0  0  0  0  0  0  0  0
   -2.1497    5.1100   -0.2116 H   0  0  0  0  0  0  0  0  0  0  0  0
   -0.7045    5.6905   -2.1420 H   0  0  0  0  0  0  0  0  0  0  0  0
  2  1  2  0  0  0  0
  3  2  1  0  0  0  0
  3  5  1  0  0  0  0
  4  1  1  0  0  0  0
  5  4  2  0  0  0  0
  6 10  1  0  0  0  0
  7  6  1  0  0  0  0
  7 22  1  0  0  0  0
  8  7  2  0  0  0  0
  8 23  1  0  0  0  0
  9  6  2  0  0  0  0
 10 11  1  0  0  0  0
 11  2  1  0  0  0  0
 11 24  1  0  0  0  0
 11 25  1  0  0  0  0
 12  8  1  0  0  0  0
 13  4  1  0  0  0  0
 13 26  1  0  0  0  0
 14  5  1  0  0  0  0
 14 27  1  0  0  0  0
 15 12  2  0  0  0  0
 15 28  1  0  0  0  0
 16 12  1  0  0  0  0
 16 29  1  0  0  0  0
 17 13  2  0  0  0  0
 17 30  1  0  0  0  0
 18 17  1  0  0  0  0
 18 14  2  0  0  0  0
 18 31  1  0  0  0  0
 19 16  2  0  0  0  0
 19 32  1  0  0  0  0
 20 15  1  0  0  0  0
 20 33  1  0  0  0  0
 21 19  1  0  0  0  0
 21 20  2  0  0  0  0
 21 34  1  0  0  0  0
M  END
>  <Mol_ID>
9027

>  <Formula>
C17H13NO2S

>  <MolWeight>
295.35562

>  <Cat>
P2907

>  <Name>
WAY-608078

>  <Synonyms>
N/A

>  <Target>
Androgen Receptor

>  <Form>
free base

>  <CAS>
1351474-54-8

>  <URL>
N/A

$$$$
