WAY-604968
 OpenBabel08302521413D

 29 32  0  0  0  0  0  0  0  0999 V2000
   -0.7034    0.5150    0.0143 C   0  0  0  0  0  0  0  0  0  0  0  0
    0.7764    0.4855    0.0464 C   0  0  0  0  0  0  0  0  0  0  0  0
   -1.6499    1.5861    0.0006 C   0  0  0  0  0  0  0  0  0  0  0  0
   -1.2611   -0.7558   -0.0018 C   0  0  0  0  0  0  0  0  0  0  0  0
    1.3997   -0.7344    0.0288 N   0  0  0  0  0  0  0  0  0  0  0  0
    1.6702    1.4411    0.0851 N   0  0  0  0  0  0  0  0  0  0  0  0
   -1.4374    3.0389   -0.0067 C   0  0  0  0  0  0  0  0  0  0  0  0
   -2.9304    1.0530   -0.0232 C   0  0  0  0  0  0  0  0  0  0  0  0
   -2.9655   -0.6603   -0.0159 S   0  0  0  0  0  0  0  0  0  0  0  0
   -0.6197   -1.9677   -0.0051 N   0  0  0  0  0  0  0  0  0  0  0  0
    0.6878   -1.9291    0.0059 C   0  0  0  0  0  0  0  0  0  0  0  0
    2.7464   -0.4647    0.0314 C   0  0  0  0  0  0  0  0  0  0  0  0
    2.9124    0.8437    0.0610 N   0  0  0  0  0  0  0  0  0  0  0  0
   -0.3498    3.6060   -0.6824 C   0  0  0  0  0  0  0  0  0  0  0  0
   -2.3229    3.9036    0.6579 C   0  0  0  0  0  0  0  0  0  0  0  0
    3.8310   -1.4680    0.0073 C   0  0  0  0  0  0  0  0  0  0  0  0
   -0.1228    4.9852   -0.6572 C   0  0  0  0  0  0  0  0  0  0  0  0
   -2.1154    5.2874    0.6561 C   0  0  0  0  0  0  0  0  0  0  0  0
   -1.0084    5.8262    0.0084 C   0  0  0  0  0  0  0  0  0  0  0  0
   -3.8741    1.5808   -0.0507 H   0  0  0  0  0  0  0  0  0  0  0  0
    1.2474   -2.8774   -0.0009 H   0  0  0  0  0  0  0  0  0  0  0  0
    0.3486    2.9892   -1.2404 H   0  0  0  0  0  0  0  0  0  0  0  0
   -3.1840    3.5169    1.1972 H   0  0  0  0  0  0  0  0  0  0  0  0
    4.4541   -1.3237   -0.8812 H   0  0  0  0  0  0  0  0  0  0  0  0
    4.4670   -1.3477    0.8897 H   0  0  0  0  0  0  0  0  0  0  0  0
    3.4621   -2.4964   -0.0039 H   0  0  0  0  0  0  0  0  0  0  0  0
    0.7510    5.3946   -1.1583 H   0  0  0  0  0  0  0  0  0  0  0  0
   -2.8144    5.9420    1.1702 H   0  0  0  0  0  0  0  0  0  0  0  0
   -0.8321    6.8986    0.0228 H   0  0  0  0  0  0  0  0  0  0  0  0
  1  2  1  0  0  0  0
  1  3  1  0  0  0  0
  1  4  2  0  0  0  0
  2  5  1  0  0  0  0
  2  6  2  0  0  0  0
  3  7  1  0  0  0  0
  3  8  2  0  0  0  0
  4  9  1  0  0  0  0
  4 10  1  0  0  0  0
  5 11  1  0  0  0  0
  5 12  1  0  0  0  0
  6 13  1  0  0  0  0
  7 14  2  0  0  0  0
  7 15  1  0  0  0  0
  8  9  1  0  0  0  0
  8 20  1  0  0  0  0
 10 11  2  0  0  0  0
 11 21  1  0  0  0  0
 12 16  1  0  0  0  0
 12 13  2  0  0  0  0
 14 17  1  0  0  0  0
 14 22  1  0  0  0  0
 15 18  2  0  0  0  0
 15 23  1  0  0  0  0
 16 24  1  0  0  0  0
 16 25  1  0  0  0  0
 16 26  1  0  0  0  0
 17 19  2  0  0  0  0
 17 27  1  0  0  0  0
 18 19  1  0  0  0  0
 18 28  1  0  0  0  0
 19 29  1  0  0  0  0
M  END
>  <Mol_ID>
8461

>  <Formula>
C14H10N4S

>  <MolWeight>
266.321

>  <Cat>
P2843

>  <Name>
WAY-604968

>  <Synonyms>
N/A

>  <Target>
Anti-infection

>  <Form>
free base

>  <CAS>
182199-66-2

>  <URL>
N/A

$$$$
