WAY-637685
 OpenBabel08302521423D

 31 32  0  0  0  0  0  0  0  0999 V2000
   -1.3813   -0.7501   -0.0332 C   0  0  0  0  0  0  0  0  0  0  0  0
   -0.0078   -1.1750   -0.2190 C   0  0  0  0  0  0  0  0  0  0  0  0
   -0.0438    1.0306    0.1775 N   0  0  0  0  0  0  0  0  0  0  0  0
   -1.3423    0.6200    0.1675 C   0  0  0  0  0  0  0  0  0  0  0  0
    0.7854   -0.0410   -0.0302 C   0  0  0  0  0  0  0  0  0  0  0  0
   -2.6518   -1.5494   -0.0595 C   0  0  0  0  0  0  0  0  0  0  0  0
    0.5358   -2.5065   -0.5375 C   0  0  0  0  0  0  0  0  0  0  0  0
   -2.9324   -2.0006    1.3554 C   0  0  0  0  0  0  0  0  0  0  0  0
   -3.6546   -1.1833    2.2397 C   0  0  0  0  0  0  0  0  0  0  0  0
    1.6541   -2.8592   -0.1511 O   0  0  0  0  0  0  0  0  0  0  0  0
    2.2611    0.1719   -0.0497 C   0  0  0  0  0  0  0  0  0  0  0  0
   -2.5107   -3.2602    1.8072 C   0  0  0  0  0  0  0  0  0  0  0  0
   -0.2680   -3.4625   -1.3785 C   0  0  0  0  0  0  0  0  0  0  0  0
   -3.9433   -1.6150    3.5378 C   0  0  0  0  0  0  0  0  0  0  0  0
   -2.7982   -3.6900    3.1040 C   0  0  0  0  0  0  0  0  0  0  0  0
   -3.5143   -2.8673    3.9687 C   0  0  0  0  0  0  0  0  0  0  0  0
    0.2651    1.9844    0.3192 H   0  0  0  0  0  0  0  0  0  0  0  0
   -2.1408    1.3323    0.3271 H   0  0  0  0  0  0  0  0  0  0  0  0
   -3.4827   -0.9304   -0.4220 H   0  0  0  0  0  0  0  0  0  0  0  0
   -2.6043   -2.4055   -0.7341 H   0  0  0  0  0  0  0  0  0  0  0  0
   -4.0024   -0.2036    1.9202 H   0  0  0  0  0  0  0  0  0  0  0  0
    2.5476    0.7412   -0.9412 H   0  0  0  0  0  0  0  0  0  0  0  0
    2.5749    0.7397    0.8327 H   0  0  0  0  0  0  0  0  0  0  0  0
    2.8264   -0.7617   -0.0545 H   0  0  0  0  0  0  0  0  0  0  0  0
   -1.9605   -3.9279    1.1528 H   0  0  0  0  0  0  0  0  0  0  0  0
   -0.8362   -4.1349   -0.7346 H   0  0  0  0  0  0  0  0  0  0  0  0
   -0.9313   -2.9286   -2.0615 H   0  0  0  0  0  0  0  0  0  0  0  0
    0.4138   -4.0600   -1.9899 H   0  0  0  0  0  0  0  0  0  0  0  0
   -4.5054   -0.9732    4.2107 H   0  0  0  0  0  0  0  0  0  0  0  0
   -2.4635   -4.6692    3.4364 H   0  0  0  0  0  0  0  0  0  0  0  0
   -3.7371   -3.2029    4.9781 H   0  0  0  0  0  0  0  0  0  0  0  0
  2  1  1  0  0  0  0
  3  4  1  0  0  0  0
  3  5  1  0  0  0  0
  3 17  1  0  0  0  0
  4  1  2  0  0  0  0
  4 18  1  0  0  0  0
  5  2  2  0  0  0  0
  6  1  1  0  0  0  0
  6 19  1  0  0  0  0
  6 20  1  0  0  0  0
  7  2  1  0  0  0  0
  8  6  1  0  0  0  0
  9  8  2  0  0  0  0
  9 21  1  0  0  0  0
 10  7  2  0  0  0  0
 11  5  1  0  0  0  0
 11 22  1  0  0  0  0
 11 23  1  0  0  0  0
 11 24  1  0  0  0  0
 12  8  1  0  0  0  0
 12 25  1  0  0  0  0
 13  7  1  0  0  0  0
 13 26  1  0  0  0  0
 13 27  1  0  0  0  0
 13 28  1  0  0  0  0
 14  9  1  0  0  0  0
 14 29  1  0  0  0  0
 15 12  2  0  0  0  0
 15 30  1  0  0  0  0
 16 15  1  0  0  0  0
 16 14  2  0  0  0  0
 16 31  1  0  0  0  0
M  END
>  <Mol_ID>
8488

>  <Formula>
C14H14ClNO

>  <MolWeight>
247.72006

>  <Cat>
P3021

>  <Name>
WAY-637685

>  <Synonyms>
N/A

>  <Target>
PfDHODH

>  <Form>
free base

>  <CAS>
790719-57-2

>  <URL>
N/A

$$$$
