WAY-332075
 OpenBabel08302521443D

 49 52  0  0  0  0  0  0  0  0999 V2000
   -2.2251    3.5236    2.1399 C   0  0  0  0  0  0  0  0  0  0  0  0
   -1.6919    3.5136    0.9346 N   0  0  0  0  0  0  0  0  0  0  0  0
   -0.4715    2.8942    1.0952 C   0  0  0  0  0  0  0  0  0  0  0  0
   -1.4318    2.9571    3.1006 O   0  0  0  0  0  0  0  0  0  0  0  0
   -3.5251    4.0346    2.5511 C   0  0  0  0  0  0  0  0  0  0  0  0
   -0.3183    2.5449    2.4227 C   0  0  0  0  0  0  0  0  0  0  0  0
   -0.1147    3.3242   -1.6411 S   0  0  3  0  0  0  0  0  0  0  0  0
    0.4654    2.6823   -0.0361 C   0  0  0  0  0  0  0  0  0  0  0  0
   -0.0687    5.0988   -1.2338 C   0  0  0  0  0  0  0  0  0  0  0  0
   -0.7388    5.9459   -2.3040 C   0  0  0  0  0  0  0  0  0  0  0  0
   -1.4035   11.7315   -2.2714 C   0  0  0  0  0  0  0  0  0  0  0  0
   -0.1393   11.8620   -2.7970 C   0  0  0  0  0  0  0  0  0  0  0  0
   -1.8885   12.9094   -1.7963 O   0  0  0  0  0  0  0  0  0  0  0  0
   -4.3771    4.5921    1.5842 C   0  0  0  0  0  0  0  0  0  0  0  0
    0.3310   13.1352   -2.7077 O   0  0  0  0  0  0  0  0  0  0  0  0
   -0.7370   13.7620   -1.9681 C   0  0  0  0  0  0  0  0  0  0  0  0
   -1.3002    7.1186   -1.8324 N   0  0  0  0  0  0  0  0  0  0  0  0
    0.9907    3.0447   -2.6205 O   0  0  0  0  0  0  0  0  0  0  0  0
   -2.0598   10.5167   -2.2394 C   0  0  0  0  0  0  0  0  0  0  0  0
   -0.7741    5.6516   -3.4900 O   0  0  0  0  0  0  0  0  0  0  0  0
    0.5361   10.7882   -3.3335 C   0  0  0  0  0  0  0  0  0  0  0  0
   -1.3885    9.3870   -2.7413 C   0  0  0  0  0  0  0  0  0  0  0  0
   -2.0332    8.0246   -2.7002 C   0  0  0  0  0  0  0  0  0  0  0  0
   -0.0982    9.5420   -3.3046 C   0  0  0  0  0  0  0  0  0  0  0  0
   -3.9680    3.9661    3.8796 C   0  0  0  0  0  0  0  0  0  0  0  0
    0.7167    1.8558    3.2160 C   0  0  0  0  0  0  0  0  0  0  0  0
   -5.6480    5.0504    1.9310 C   0  0  0  0  0  0  0  0  0  0  0  0
   -5.2391    4.4248    4.2268 C   0  0  0  0  0  0  0  0  0  0  0  0
   -6.0797    4.9606    3.2513 C   0  0  0  0  0  0  0  0  0  0  0  0
    1.4434    3.1272    0.1777 H   0  0  0  0  0  0  0  0  0  0  0  0
    0.6117    1.6046   -0.1770 H   0  0  0  0  0  0  0  0  0  0  0  0
   -0.5911    5.2724   -0.2906 H   0  0  0  0  0  0  0  0  0  0  0  0
    0.9743    5.4129   -1.1208 H   0  0  0  0  0  0  0  0  0  0  0  0
   -4.0559    4.6567    0.5465 H   0  0  0  0  0  0  0  0  0  0  0  0
   -0.3584   14.0358   -0.9753 H   0  0  0  0  0  0  0  0  0  0  0  0
   -1.0416   14.6755   -2.4899 H   0  0  0  0  0  0  0  0  0  0  0  0
   -1.2225    7.3660   -0.8579 H   0  0  0  0  0  0  0  0  0  0  0  0
   -3.0585   10.4506   -1.8259 H   0  0  0  0  0  0  0  0  0  0  0  0
    1.5248   10.9054   -3.7600 H   0  0  0  0  0  0  0  0  0  0  0  0
   -2.1254    7.6261   -3.7158 H   0  0  0  0  0  0  0  0  0  0  0  0
   -3.0454    8.0942   -2.2834 H   0  0  0  0  0  0  0  0  0  0  0  0
    0.4150    8.6747   -3.7177 H   0  0  0  0  0  0  0  0  0  0  0  0
   -3.3297    3.5440    4.6529 H   0  0  0  0  0  0  0  0  0  0  0  0
    1.1006    2.5142    4.0013 H   0  0  0  0  0  0  0  0  0  0  0  0
    0.2979    0.9636    3.6915 H   0  0  0  0  0  0  0  0  0  0  0  0
    1.5568    1.5444    2.5896 H   0  0  0  0  0  0  0  0  0  0  0  0
   -6.3027    5.4662    1.1701 H   0  0  0  0  0  0  0  0  0  0  0  0
   -5.5780    4.3552    5.2583 H   0  0  0  0  0  0  0  0  0  0  0  0
   -7.0770    5.3038    3.5226 H   0  0  0  0  0  0  0  0  0  0  0  0
  2  1  2  0  0  0  0
  3  2  1  0  0  0  0
  3  6  2  0  0  0  0
  4  1  1  0  0  0  0
  5  1  1  0  0  0  0
  6  4  1  0  0  0  0
  7  8  1  0  0  0  0
  8  3  1  0  0  0  0
  8 30  1  0  0  0  0
  8 31  1  0  0  0  0
  9  7  1  0  0  0  0
  9 32  1  0  0  0  0
  9 33  1  0  0  0  0
 10  9  1  0  0  0  0
 11 19  2  0  0  0  0
 11 12  1  0  0  0  0
 12 21  2  0  0  0  0
 13 11  1  0  0  0  0
 14  5  2  0  0  0  0
 14 34  1  0  0  0  0
 15 12  1  0  0  0  0
 15 16  1  0  0  0  0
 16 13  1  0  0  0  0
 16 35  1  0  0  0  0
 16 36  1  0  0  0  0
 17 10  1  0  0  0  0
 17 37  1  0  0  0  0
 18  7  2  0  0  0  0
 19 22  1  0  0  0  0
 19 38  1  0  0  0  0
 20 10  2  0  0  0  0
 21 24  1  0  0  0  0
 21 39  1  0  0  0  0
 22 23  1  0  0  0  0
 23 17  1  0  0  0  0
 23 40  1  0  0  0  0
 23 41  1  0  0  0  0
 24 22  2  0  0  0  0
 24 42  1  0  0  0  0
 25  5  1  0  0  0  0
 25 43  1  0  0  0  0
 26  6  1  0  0  0  0
 26 44  1  0  0  0  0
 26 45  1  0  0  0  0
 26 46  1  0  0  0  0
 27 14  1  0  0  0  0
 27 29  2  0  0  0  0
 27 47  1  0  0  0  0
 28 25  2  0  0  0  0
 28 48  1  0  0  0  0
 29 28  1  0  0  0  0
 29 49  1  0  0  0  0
M  END
>  <Mol_ID>
9252

>  <Formula>
C21H19ClN2O5S

>  <MolWeight>
446.90396

>  <Cat>
P2716

>  <Name>
WAY-332075

>  <Synonyms>
N/A

>  <Target>
beta-catenin

>  <Form>
free base

>  <CAS>
1015865-22-1

>  <URL>
N/A

$$$$
