WAY-354436
 OpenBabel08302521393D

 46 48  0  0  0  0  0  0  0  0999 V2000
    1.1531    1.7034    0.3438 C   0  0  0  0  0  0  0  0  0  0  0  0
    2.3186    1.0968   -0.0653 N   0  0  0  0  0  0  0  0  0  0  0  0
   -2.0308    0.1866    3.5904 N   0  0  0  0  0  0  0  0  0  0  0  0
    2.4093    0.0084   -0.9675 C   0  0  0  0  0  0  0  0  0  0  0  0
    0.1926    0.8026    0.7269 N   0  0  0  0  0  0  0  0  0  0  0  0
    1.0894    3.3609    0.4195 S   0  0  0  0  0  0  0  0  0  0  0  0
    3.6231   -0.6701   -1.0868 C   0  0  0  0  0  0  0  0  0  0  0  0
   -1.6651   -0.1520    4.9833 C   0  0  0  0  0  0  0  0  0  0  0  0
   -1.7813    1.9390    1.8466 C   0  0  0  0  0  0  0  0  0  0  0  0
   -1.8687   -0.4445    1.1850 C   0  0  0  0  0  0  0  0  0  0  0  0
   -1.2703    0.9249    0.8277 C   0  0  0  0  0  0  0  0  0  0  0  0
   -1.5681   -0.8329    2.6402 C   0  0  0  0  0  0  0  0  0  0  0  0
   -1.4574    1.5089    3.2717 C   0  0  0  0  0  0  0  0  0  0  0  0
    4.6678   -0.3164   -0.3211 F   0  0  0  0  0  0  0  0  0  0  0  0
   -2.2416   -1.4554    5.4891 C   0  0  0  0  0  0  0  0  0  0  0  0
    1.3384   -0.3686   -1.7894 C   0  0  0  0  0  0  0  0  0  0  0  0
    3.7607   -1.7375   -1.9695 C   0  0  0  0  0  0  0  0  0  0  0  0
   -1.3900   -2.4976    5.8861 C   0  0  0  0  0  0  0  0  0  0  0  0
   -3.6282   -1.6436    5.5733 C   0  0  0  0  0  0  0  0  0  0  0  0
    1.4767   -1.4263   -2.6893 C   0  0  0  0  0  0  0  0  0  0  0  0
    2.6849   -2.1165   -2.7735 C   0  0  0  0  0  0  0  0  0  0  0  0
   -1.9145   -3.7120    6.3301 C   0  0  0  0  0  0  0  0  0  0  0  0
   -4.1509   -2.8571    6.0240 C   0  0  0  0  0  0  0  0  0  0  0  0
   -3.2944   -3.8930    6.3941 C   0  0  0  0  0  0  0  0  0  0  0  0
    3.1795    1.6170    0.0813 H   0  0  0  0  0  0  0  0  0  0  0  0
    0.5518   -0.1423    0.7818 H   0  0  0  0  0  0  0  0  0  0  0  0
   -0.5714   -0.1648    5.0951 H   0  0  0  0  0  0  0  0  0  0  0  0
   -2.0292    0.6370    5.6586 H   0  0  0  0  0  0  0  0  0  0  0  0
   -1.3851    2.9388    1.6668 H   0  0  0  0  0  0  0  0  0  0  0  0
   -2.8703    2.0309    1.7361 H   0  0  0  0  0  0  0  0  0  0  0  0
   -2.9563   -0.4153    1.0379 H   0  0  0  0  0  0  0  0  0  0  0  0
   -1.4815   -1.2223    0.5147 H   0  0  0  0  0  0  0  0  0  0  0  0
   -1.6113    1.2153   -0.1731 H   0  0  0  0  0  0  0  0  0  0  0  0
   -2.0798   -1.7845    2.8294 H   0  0  0  0  0  0  0  0  0  0  0  0
   -0.4930   -1.0187    2.7589 H   0  0  0  0  0  0  0  0  0  0  0  0
   -0.3691    1.5102    3.4186 H   0  0  0  0  0  0  0  0  0  0  0  0
   -1.8759    2.2620    3.9520 H   0  0  0  0  0  0  0  0  0  0  0  0
    0.4010    0.1828   -1.7794 H   0  0  0  0  0  0  0  0  0  0  0  0
    4.7069   -2.2660   -2.0280 H   0  0  0  0  0  0  0  0  0  0  0  0
   -0.3107   -2.3703    5.8466 H   0  0  0  0  0  0  0  0  0  0  0  0
   -4.3029   -0.8438    5.2751 H   0  0  0  0  0  0  0  0  0  0  0  0
    0.6441   -1.6989   -3.3329 H   0  0  0  0  0  0  0  0  0  0  0  0
    2.7886   -2.9440   -3.4698 H   0  0  0  0  0  0  0  0  0  0  0  0
   -1.2457   -4.5166    6.6236 H   0  0  0  0  0  0  0  0  0  0  0  0
   -5.2272   -2.9954    6.0814 H   0  0  0  0  0  0  0  0  0  0  0  0
   -3.7024   -4.8413    6.7330 H   0  0  0  0  0  0  0  0  0  0  0  0
  2  1  1  0  0  0  0
  2 25  1  0  0  0  0
  3 12  1  0  0  0  0
  3 13  1  0  0  0  0
  4  2  1  0  0  0  0
  5  1  1  0  0  0  0
  5 26  1  0  0  0  0
  6  1  2  0  0  0  0
  7  4  2  0  0  0  0
  8  3  1  0  0  0  0
  8 27  1  0  0  0  0
  8 28  1  0  0  0  0
  9 11  1  0  0  0  0
  9 29  1  0  0  0  0
  9 30  1  0  0  0  0
 10 11  1  0  0  0  0
 10 31  1  0  0  0  0
 10 32  1  0  0  0  0
 11  5  1  0  0  0  0
 11 33  1  0  0  0  0
 12 10  1  0  0  0  0
 12 34  1  0  0  0  0
 12 35  1  0  0  0  0
 13  9  1  0  0  0  0
 13 36  1  0  0  0  0
 13 37  1  0  0  0  0
 14  7  1  0  0  0  0
 15  8  1  0  0  0  0
 16  4  1  0  0  0  0
 16 38  1  0  0  0  0
 17  7  1  0  0  0  0
 17 21  2  0  0  0  0
 17 39  1  0  0  0  0
 18 15  2  0  0  0  0
 18 40  1  0  0  0  0
 19 15  1  0  0  0  0
 19 41  1  0  0  0  0
 20 16  2  0  0  0  0
 20 42  1  0  0  0  0
 21 20  1  0  0  0  0
 21 43  1  0  0  0  0
 22 18  1  0  0  0  0
 22 44  1  0  0  0  0
 23 19  2  0  0  0  0
 23 45  1  0  0  0  0
 24 23  1  0  0  0  0
 24 22  2  0  0  0  0
 24 46  1  0  0  0  0
M  END
>  <Mol_ID>
8059

>  <Formula>
C19H22FN3S

>  <MolWeight>
343.4614832

>  <Cat>
P2767

>  <Name>
WAY-354436

>  <Synonyms>
N/A

>  <Target>
Anti-infection

>  <Form>
free base

>  <CAS>
850023-52-8

>  <URL>
N/A

$$$$
