WAY-329597
 OpenBabel08302521453D

 39 41  0  0  0  0  0  0  0  0999 V2000
   -1.3269    1.5071   -0.0245 S   0  0  0  0  0  0  0  0  0  0  0  0
   -1.9378    3.0577   -0.5789 C   0  0  0  0  0  0  0  0  0  0  0  0
   -1.6709    3.5772   -1.8650 C   0  0  0  0  0  0  0  0  0  0  0  0
   -0.9408    3.0180   -2.8456 N   0  0  0  0  0  0  0  0  0  0  0  0
    0.4293    1.5617    0.0023 C   0  0  0  0  0  0  0  0  0  0  0  0
   -1.0203    4.0459   -4.1497 S   0  0  0  0  0  0  0  0  0  0  0  0
   -2.2360    4.9259   -2.2640 C   0  0  0  0  0  0  0  0  0  0  0  0
   -1.9217    5.2863   -3.5172 N   0  0  0  0  0  0  0  0  0  0  0  0
    0.9251    2.6656    0.8946 C   0  0  0  0  0  0  0  0  0  0  0  0
    2.5773    3.0724    2.7304 C   0  0  0  0  0  0  0  0  0  0  0  0
    1.8665    2.2412    1.8230 N   0  0  0  0  0  0  0  0  0  0  0  0
   -2.7566    3.8412    0.2655 C   0  0  0  0  0  0  0  0  0  0  0  0
   -1.7283    0.5176   -1.0147 O   0  0  0  0  0  0  0  0  0  0  0  0
   -1.7667    1.3280    1.3471 O   0  0  0  0  0  0  0  0  0  0  0  0
   -3.2648    5.1057   -0.1091 C   0  0  0  0  0  0  0  0  0  0  0  0
   -3.0188    5.6877   -1.3630 C   0  0  0  0  0  0  0  0  0  0  0  0
    0.5824    3.8287    0.7125 O   0  0  0  0  0  0  0  0  0  0  0  0
    1.9630    4.0533    3.5381 C   0  0  0  0  0  0  0  0  0  0  0  0
    3.9685    2.8311    2.8701 C   0  0  0  0  0  0  0  0  0  0  0  0
    4.1162    4.5450    4.5808 C   0  0  0  0  0  0  0  0  0  0  0  0
    2.7535    4.7867    4.4473 C   0  0  0  0  0  0  0  0  0  0  0  0
    4.7211    3.5729    3.7961 C   0  0  0  0  0  0  0  0  0  0  0  0
    0.4910    4.3680    3.5262 C   0  0  0  0  0  0  0  0  0  0  0  0
    4.7029    1.8393    2.0040 C   0  0  0  0  0  0  0  0  0  0  0  0
    0.7601    0.5812    0.3613 H   0  0  0  0  0  0  0  0  0  0  0  0
    0.8153    1.6996   -1.0107 H   0  0  0  0  0  0  0  0  0  0  0  0
    2.3070    1.3506    1.6319 H   0  0  0  0  0  0  0  0  0  0  0  0
   -3.0071    3.4675    1.2599 H   0  0  0  0  0  0  0  0  0  0  0  0
   -3.8751    5.6525    0.6099 H   0  0  0  0  0  0  0  0  0  0  0  0
   -3.4109    6.6613   -1.6336 H   0  0  0  0  0  0  0  0  0  0  0  0
    4.7050    5.1148    5.2948 H   0  0  0  0  0  0  0  0  0  0  0  0
    2.2966    5.5470    5.0792 H   0  0  0  0  0  0  0  0  0  0  0  0
    5.7908    3.4054    3.9005 H   0  0  0  0  0  0  0  0  0  0  0  0
    0.2782    5.1492    2.7907 H   0  0  0  0  0  0  0  0  0  0  0  0
   -0.1129    3.4800    3.3226 H   0  0  0  0  0  0  0  0  0  0  0  0
    0.1651    4.7396    4.5052 H   0  0  0  0  0  0  0  0  0  0  0  0
    4.3793    0.8194    2.2308 H   0  0  0  0  0  0  0  0  0  0  0  0
    4.5230    2.0586    0.9458 H   0  0  0  0  0  0  0  0  0  0  0  0
    5.7857    1.8887    2.1613 H   0  0  0  0  0  0  0  0  0  0  0  0
  2  1  1  0  0  0  0
  3  2  1  0  0  0  0
  4  3  2  0  0  0  0
  5  1  1  0  0  0  0
  5 25  1  0  0  0  0
  5 26  1  0  0  0  0
  6  4  1  0  0  0  0
  6  8  1  0  0  0  0
  7  3  1  0  0  0  0
  7 16  1  0  0  0  0
  8  7  2  0  0  0  0
  9  5  1  0  0  0  0
 10 11  1  0  0  0  0
 11  9  1  0  0  0  0
 11 27  1  0  0  0  0
 12  2  2  0  0  0  0
 12 28  1  0  0  0  0
 13  1  2  0  0  0  0
 14  1  2  0  0  0  0
 15 12  1  0  0  0  0
 15 29  1  0  0  0  0
 16 15  2  0  0  0  0
 16 30  1  0  0  0  0
 17  9  2  0  0  0  0
 18 10  2  0  0  0  0
 19 10  1  0  0  0  0
 20 22  1  0  0  0  0
 20 31  1  0  0  0  0
 21 18  1  0  0  0  0
 21 20  2  0  0  0  0
 21 32  1  0  0  0  0
 22 19  2  0  0  0  0
 22 33  1  0  0  0  0
 23 18  1  0  0  0  0
 23 34  1  0  0  0  0
 23 35  1  0  0  0  0
 23 36  1  0  0  0  0
 24 19  1  0  0  0  0
 24 37  1  0  0  0  0
 24 38  1  0  0  0  0
 24 39  1  0  0  0  0
M  END
>  <Mol_ID>
9309

>  <Formula>
C16H15N3O3S2

>  <MolWeight>
361.4386

>  <Cat>
P2583

>  <Name>
WAY-329597

>  <Synonyms>
N/A

>  <Target>
others

>  <Form>
free base

>  <CAS>
956949-44-3

>  <URL>
N/A

$$$$
