WAY-605042
 OpenBabel08302521413D

 35 37  0  0  0  0  0  0  0  0999 V2000
   -0.2386   -3.7643    0.8582 C   0  0  0  0  0  0  0  0  0  0  0  0
    0.7951   -3.5838    1.7321 N   0  0  0  0  0  0  0  0  0  0  0  0
   -3.8352   -0.9943    1.1486 N   0  0  0  0  0  0  0  0  0  0  0  0
    0.1234   -3.3058   -0.3175 N   0  0  0  0  0  0  0  0  0  0  0  0
    1.4132   -2.8524   -0.1647 N   0  0  0  0  0  0  0  0  0  0  0  0
    1.8370   -3.0286    1.0804 N   0  0  0  0  0  0  0  0  0  0  0  0
   -5.0179   -1.0461    0.2283 C   0  0  3  0  0  0  0  0  0  0  0  0
   -3.9001    0.2320    1.8636 C   0  0  0  0  0  0  0  0  0  0  0  0
   -2.8791   -1.9742    1.4177 C   0  0  0  0  0  0  0  0  0  0  0  0
   -4.9896    0.9937    1.4506 C   0  0  0  0  0  0  0  0  0  0  0  0
   -1.7512   -4.5207    1.2341 S   0  0  0  0  0  0  0  0  0  0  0  0
   -5.8127    0.2730    0.4354 C   0  0  0  0  0  0  0  0  0  0  0  0
   -2.9271   -3.2583    0.5998 C   0  0  0  0  0  0  0  0  0  0  0  0
   -2.0150   -1.8421    2.2932 O   0  0  0  0  0  0  0  0  0  0  0  0
    0.9155   -3.8800    3.1327 C   0  0  0  0  0  0  0  0  0  0  0  0
   -4.6849   -1.1832   -1.2575 C   0  0  0  0  0  0  0  0  0  0  0  0
   -3.0593    0.7145    2.8559 C   0  0  0  0  0  0  0  0  0  0  0  0
   -5.2295    2.2625    1.9673 C   0  0  0  0  0  0  0  0  0  0  0  0
   -3.2955    1.9818    3.3961 C   0  0  0  0  0  0  0  0  0  0  0  0
   -4.3649    2.7593    2.9423 C   0  0  0  0  0  0  0  0  0  0  0  0
   -5.6345   -1.9006    0.5334 H   0  0  0  0  0  0  0  0  0  0  0  0
   -6.8157    0.0703    0.8221 H   0  0  0  0  0  0  0  0  0  0  0  0
   -5.8942    0.8707   -0.4781 H   0  0  0  0  0  0  0  0  0  0  0  0
   -2.6767   -3.0503   -0.4410 H   0  0  0  0  0  0  0  0  0  0  0  0
   -3.9308   -3.6889    0.6636 H   0  0  0  0  0  0  0  0  0  0  0  0
    1.5607   -4.7555    3.2392 H   0  0  0  0  0  0  0  0  0  0  0  0
    1.3704   -3.0217    3.6353 H   0  0  0  0  0  0  0  0  0  0  0  0
   -0.0625   -4.0766    3.5725 H   0  0  0  0  0  0  0  0  0  0  0  0
   -3.9851   -0.4057   -1.5820 H   0  0  0  0  0  0  0  0  0  0  0  0
   -4.2538   -2.1535   -1.4993 H   0  0  0  0  0  0  0  0  0  0  0  0
   -5.5959   -1.0912   -1.8622 H   0  0  0  0  0  0  0  0  0  0  0  0
   -2.2180    0.1463    3.2332 H   0  0  0  0  0  0  0  0  0  0  0  0
   -6.0651    2.8621    1.6211 H   0  0  0  0  0  0  0  0  0  0  0  0
   -2.6326    2.3634    4.1694 H   0  0  0  0  0  0  0  0  0  0  0  0
   -4.5208    3.7515    3.3576 H   0  0  0  0  0  0  0  0  0  0  0  0
  2  1  1  0  0  0  0
  3  9  1  0  0  0  0
  4  1  2  0  0  0  0
  5  4  1  0  0  0  0
  6  2  1  0  0  0  0
  6  5  2  0  0  0  0
  7  3  1  0  0  0  0
  7 21  1  0  0  0  0
  8  3  1  0  0  0  0
  9 13  1  0  0  0  0
 10  8  2  0  0  0  0
 10 12  1  0  0  0  0
 11  1  1  0  0  0  0
 12  7  1  0  0  0  0
 12 22  1  0  0  0  0
 12 23  1  0  0  0  0
 13 11  1  0  0  0  0
 13 24  1  0  0  0  0
 13 25  1  0  0  0  0
 14  9  2  0  0  0  0
 15  2  1  0  0  0  0
 15 26  1  0  0  0  0
 15 27  1  0  0  0  0
 15 28  1  0  0  0  0
 16  7  1  0  0  0  0
 16 29  1  0  0  0  0
 16 30  1  0  0  0  0
 16 31  1  0  0  0  0
 17  8  1  0  0  0  0
 17 32  1  0  0  0  0
 18 10  1  0  0  0  0
 18 33  1  0  0  0  0
 19 17  2  0  0  0  0
 19 34  1  0  0  0  0
 20 19  1  0  0  0  0
 20 18  2  0  0  0  0
 20 35  1  0  0  0  0
M  END
>  <Mol_ID>
8464

>  <Formula>
C13H15N5OS

>  <MolWeight>
289.3561

>  <Cat>
P2846

>  <Name>
WAY-605042

>  <Synonyms>
N/A

>  <Target>
MtSk

>  <Form>
free base

>  <CAS>
380170-59-2

>  <URL>
N/A

$$$$
