WAY-324712
 OpenBabel08302521423D

 42 45  0  0  0  0  0  0  0  0999 V2000
   -1.1841   -0.9653    1.2875 C   0  0  0  0  0  0  0  0  0  0  0  0
   -1.1259   -3.3030    0.4830 C   0  0  0  0  0  0  0  0  0  0  0  0
   -1.6205    0.2727    1.1382 N   0  0  0  0  0  0  0  0  0  0  0  0
   -0.9030    1.1324    1.9779 C   0  0  0  0  0  0  0  0  0  0  0  0
   -1.6961   -2.0393    0.5867 N   0  0  0  0  0  0  0  0  0  0  0  0
   -2.1023   -4.3548   -0.0500 C   0  0  3  0  0  0  0  0  0  0  0  0
   -1.0598    2.5925    1.9701 C   0  0  0  0  0  0  0  0  0  0  0  0
   -1.5398   -5.7950   -0.2558 C   0  0  3  0  0  0  0  0  0  0  0  0
   -2.7009   -4.0549   -1.4401 C   0  0  3  0  0  0  0  0  0  0  0  0
   -2.1789   -6.2152   -1.6135 C   0  0  3  0  0  0  0  0  0  0  0  0
   -0.0342   -1.1961    2.5258 S   0  0  0  0  0  0  0  0  0  0  0  0
   -0.0419    0.4818    2.8419 C   0  0  0  0  0  0  0  0  0  0  0  0
    0.0128    3.4459    2.2945 C   0  0  0  0  0  0  0  0  0  0  0  0
   -1.9713   -6.7587    0.8229 C   0  0  0  0  0  0  0  0  0  0  0  0
   -3.4504   -5.3651   -1.6813 C   0  0  0  0  0  0  0  0  0  0  0  0
   -0.1271    4.8321    2.3242 C   0  0  0  0  0  0  0  0  0  0  0  0
   -2.2903    3.1871    1.6492 C   0  0  0  0  0  0  0  0  0  0  0  0
    0.0115   -3.6151    0.8200 O   0  0  0  0  0  0  0  0  0  0  0  0
   -1.6151   -4.0937   -2.5418 C   0  0  0  0  0  0  0  0  0  0  0  0
   -1.3634   -5.5937   -2.7486 C   0  0  0  0  0  0  0  0  0  0  0  0
   -2.6084   -6.5006    1.8262 O   0  0  0  0  0  0  0  0  0  0  0  0
   -1.3524    5.3896    2.0199 C   0  0  0  0  0  0  0  0  0  0  0  0
    1.2254    2.9460    2.5836 F   0  0  0  0  0  0  0  0  0  0  0  0
   -2.4353    4.5838    1.6801 C   0  0  0  0  0  0  0  0  0  0  0  0
   -1.5711   -8.0252    0.5756 O   0  0  0  0  0  0  0  0  0  0  0  0
   -1.5006    6.7206    2.0515 F   0  0  0  0  0  0  0  0  0  0  0  0
   -2.5098   -1.8062    0.0379 H   0  0  0  0  0  0  0  0  0  0  0  0
   -2.9188   -4.3748    0.6854 H   0  0  0  0  0  0  0  0  0  0  0  0
   -0.4440   -5.8181   -0.2956 H   0  0  0  0  0  0  0  0  0  0  0  0
   -3.3204   -3.1576   -1.4745 H   0  0  0  0  0  0  0  0  0  0  0  0
   -2.3512   -7.2872   -1.7438 H   0  0  0  0  0  0  0  0  0  0  0  0
    0.5911    0.8955    3.6136 H   0  0  0  0  0  0  0  0  0  0  0  0
   -3.9511   -5.4027   -2.6540 H   0  0  0  0  0  0  0  0  0  0  0  0
   -4.1724   -5.6061   -0.8931 H   0  0  0  0  0  0  0  0  0  0  0  0
    0.7196    5.4618    2.5860 H   0  0  0  0  0  0  0  0  0  0  0  0
   -3.1477    2.5714    1.3877 H   0  0  0  0  0  0  0  0  0  0  0  0
   -0.6980   -3.5714   -2.2525 H   0  0  0  0  0  0  0  0  0  0  0  0
   -1.9829   -3.6474   -3.4717 H   0  0  0  0  0  0  0  0  0  0  0  0
   -0.3032   -5.8594   -2.7148 H   0  0  0  0  0  0  0  0  0  0  0  0
   -1.7616   -5.9127   -3.7208 H   0  0  0  0  0  0  0  0  0  0  0  0
   -3.3882    5.0511    1.4451 H   0  0  0  0  0  0  0  0  0  0  0  0
   -1.9222   -8.5457    1.3266 H   0  0  0  0  0  0  0  0  0  0  0  0
  2  5  1  0  0  0  0
  3  1  2  0  0  0  0
  4  3  1  0  0  0  0
  5  1  1  0  0  0  0
  5 27  1  0  0  0  0
  6  2  1  0  0  0  0
  6 28  1  0  0  0  0
  7  4  1  0  0  0  0
  8  6  1  0  0  0  0
  8 29  1  0  0  0  0
  9  6  1  0  0  0  0
  9 30  1  0  0  0  0
 10  8  1  0  0  0  0
 10 31  1  0  0  0  0
 11  1  1  0  0  0  0
 12 11  1  0  0  0  0
 12  4  2  0  0  0  0
 12 32  1  0  0  0  0
 13  7  2  0  0  0  0
 14  8  1  0  0  0  0
 15  9  1  0  0  0  0
 15 10  1  0  0  0  0
 15 33  1  0  0  0  0
 15 34  1  0  0  0  0
 16 13  1  0  0  0  0
 16 35  1  0  0  0  0
 17  7  1  0  0  0  0
 17 36  1  0  0  0  0
 18  2  2  0  0  0  0
 19  9  1  0  0  0  0
 19 37  1  0  0  0  0
 19 38  1  0  0  0  0
 20 19  1  0  0  0  0
 20 10  1  0  0  0  0
 20 39  1  0  0  0  0
 20 40  1  0  0  0  0
 21 14  2  0  0  0  0
 22 24  1  0  0  0  0
 22 16  2  0  0  0  0
 23 13  1  0  0  0  0
 24 17  2  0  0  0  0
 24 41  1  0  0  0  0
 25 14  1  0  0  0  0
 25 42  1  0  0  0  0
 26 22  1  0  0  0  0
M  END
>  <Mol_ID>
8621

>  <Formula>
C18H16F2N2O3S

>  <MolWeight>
378.3930464

>  <Cat>
P2343

>  <Name>
WAY-324712

>  <Synonyms>
N/A

>  <Target>
Anti-infection

>  <Form>
free base

>  <CAS>
345288-44-0

>  <URL>
N/A

$$$$
