WAY-332008
 OpenBabel08302521443D

 42 44  0  0  0  0  0  0  0  0999 V2000
   -1.4651    0.6398   -0.0462 N   0  0  0  0  0  0  0  0  0  0  0  0
   -1.2746   -0.6665   -0.0213 C   0  0  0  0  0  0  0  0  0  0  0  0
   -0.1900    1.1736   -0.0361 C   0  0  0  0  0  0  0  0  0  0  0  0
    0.0454   -1.0326    0.0270 O   0  0  0  0  0  0  0  0  0  0  0  0
    0.7318    0.1469    0.0113 C   0  0  0  0  0  0  0  0  0  0  0  0
   -2.2497   -1.7533   -0.0668 C   0  0  0  0  0  0  0  0  0  0  0  0
   -0.0025    6.0190   -5.0351 C   0  0  0  0  0  0  0  0  0  0  0  0
   -0.0710    5.4029   -3.7506 N   0  0  0  0  0  0  0  0  0  0  0  0
    0.6415    5.8572   -2.6589 C   0  0  0  0  0  0  0  0  0  0  0  0
   -1.0093    7.0571   -5.4423 C   0  0  0  0  0  0  0  0  0  0  0  0
   -1.0379    5.6987   -6.0788 C   0  0  0  0  0  0  0  0  0  0  0  0
    1.3056    6.8928   -2.6530 O   0  0  0  0  0  0  0  0  0  0  0  0
   -3.6160   -1.4660   -0.1953 C   0  0  0  0  0  0  0  0  0  0  0  0
   -1.8541   -3.0974   -0.0114 C   0  0  0  0  0  0  0  0  0  0  0  0
    0.2498    3.2447   -1.7613 S   0  0  0  0  0  0  0  0  0  0  0  0
    0.0287    2.6433   -0.0573 C   0  0  0  0  0  0  0  0  0  0  0  0
   -2.7942   -4.1280   -0.1068 C   0  0  0  0  0  0  0  0  0  0  0  0
   -4.5584   -2.4962   -0.2924 C   0  0  0  0  0  0  0  0  0  0  0  0
   -4.1523   -3.8352   -0.2576 C   0  0  0  0  0  0  0  0  0  0  0  0
    0.4736    5.0211   -1.3950 C   0  0  0  0  0  0  0  0  0  0  0  0
    2.2007    0.0513    0.0369 C   0  0  0  0  0  0  0  0  0  0  0  0
   -5.1625   -4.9337   -0.4059 C   0  0  0  0  0  0  0  0  0  0  0  0
    1.0175    6.1610   -5.3863 H   0  0  0  0  0  0  0  0  0  0  0  0
   -0.4622    4.4678   -3.6803 H   0  0  0  0  0  0  0  0  0  0  0  0
   -1.7901    7.3134   -4.7377 H   0  0  0  0  0  0  0  0  0  0  0  0
   -0.6532    7.8931   -6.0341 H   0  0  0  0  0  0  0  0  0  0  0  0
   -0.7085    5.6113   -7.1077 H   0  0  0  0  0  0  0  0  0  0  0  0
   -1.8551    5.0372   -5.8167 H   0  0  0  0  0  0  0  0  0  0  0  0
   -3.9529   -0.4317   -0.2351 H   0  0  0  0  0  0  0  0  0  0  0  0
   -0.8034   -3.3585    0.0946 H   0  0  0  0  0  0  0  0  0  0  0  0
   -0.8335    3.1482    0.3900 H   0  0  0  0  0  0  0  0  0  0  0  0
    0.9166    2.8999    0.5294 H   0  0  0  0  0  0  0  0  0  0  0  0
   -2.4516   -5.1599   -0.0734 H   0  0  0  0  0  0  0  0  0  0  0  0
   -5.6106   -2.2450   -0.4076 H   0  0  0  0  0  0  0  0  0  0  0  0
   -0.3940    5.4039   -0.8473 H   0  0  0  0  0  0  0  0  0  0  0  0
    1.3742    5.1380   -0.7863 H   0  0  0  0  0  0  0  0  0  0  0  0
    2.5323   -0.5064    0.9186 H   0  0  0  0  0  0  0  0  0  0  0  0
    2.5640   -0.4704   -0.8541 H   0  0  0  0  0  0  0  0  0  0  0  0
    2.6658    1.0406    0.0657 H   0  0  0  0  0  0  0  0  0  0  0  0
   -5.9279   -4.8553    0.3722 H   0  0  0  0  0  0  0  0  0  0  0  0
   -5.6389   -4.8740   -1.3900 H   0  0  0  0  0  0  0  0  0  0  0  0
   -4.6961   -5.9210   -0.3191 H   0  0  0  0  0  0  0  0  0  0  0  0
  2  1  2  0  0  0  0
  3  1  1  0  0  0  0
  4  2  1  0  0  0  0
  5  3  2  0  0  0  0
  5  4  1  0  0  0  0
  6  2  1  0  0  0  0
  7  8  1  0  0  0  0
  7 23  1  0  0  0  0
  8  9  1  0  0  0  0
  8 24  1  0  0  0  0
  9 20  1  0  0  0  0
 10  7  1  0  0  0  0
 10 11  1  0  0  0  0
 10 25  1  0  0  0  0
 10 26  1  0  0  0  0
 11  7  1  0  0  0  0
 11 27  1  0  0  0  0
 11 28  1  0  0  0  0
 12  9  2  0  0  0  0
 13  6  2  0  0  0  0
 13 29  1  0  0  0  0
 14  6  1  0  0  0  0
 14 30  1  0  0  0  0
 15 16  1  0  0  0  0
 16  3  1  0  0  0  0
 16 31  1  0  0  0  0
 16 32  1  0  0  0  0
 17 14  2  0  0  0  0
 17 33  1  0  0  0  0
 18 13  1  0  0  0  0
 18 34  1  0  0  0  0
 19 17  1  0  0  0  0
 19 18  2  0  0  0  0
 20 15  1  0  0  0  0
 20 35  1  0  0  0  0
 20 36  1  0  0  0  0
 21  5  1  0  0  0  0
 21 37  1  0  0  0  0
 21 38  1  0  0  0  0
 21 39  1  0  0  0  0
 22 19  1  0  0  0  0
 22 40  1  0  0  0  0
 22 41  1  0  0  0  0
 22 42  1  0  0  0  0
M  END
>  <Mol_ID>
9220

>  <Formula>
C17H20N2O2S

>  <MolWeight>
316.4179

>  <Cat>
P2665

>  <Name>
WAY-332008

>  <Synonyms>
N/A

>  <Target>
beta-catenin

>  <Form>
free base

>  <CAS>
902586-39-4

>  <URL>
N/A

$$$$
