WAY-324461
 OpenBabel08302521423D

 41 42  0  0  0  0  0  0  0  0999 V2000
    2.6571    1.5524    0.0279 N   0  0  0  0  0  0  0  0  0  0  0  0
    2.4518   -0.6737   -0.4747 C   0  0  0  0  0  0  0  0  0  0  0  0
    1.9670    1.3759   -1.1045 N   0  0  0  0  0  0  0  0  0  0  0  0
    1.8188    0.0644   -1.4607 C   0  0  0  0  0  0  0  0  0  0  0  0
    2.9663    0.3115    0.4194 C   0  0  0  0  0  0  0  0  0  0  0  0
    2.6124   -2.1600   -0.3890 C   0  0  0  0  0  0  0  0  0  0  0  0
   -1.7431   -7.2632    1.2490 C   0  0  0  0  0  0  0  0  0  0  0  0
    1.1103   -0.3304   -2.6996 C   0  0  0  0  0  0  0  0  0  0  0  0
   -1.5173   -5.9807    1.6675 O   0  0  0  0  0  0  0  0  0  0  0  0
    3.7715    0.1063    1.6494 C   0  0  0  0  0  0  0  0  0  0  0  0
   -0.6999   -5.1147    0.8685 C   0  0  0  0  0  0  0  0  0  0  0  0
   -2.0594   -8.1744    2.2634 C   0  0  0  0  0  0  0  0  0  0  0  0
   -1.7378   -7.7075   -0.0722 C   0  0  0  0  0  0  0  0  0  0  0  0
    1.5030   -2.8544    0.4195 C   0  0  0  0  0  0  0  0  0  0  0  0
    0.7460   -5.1505    1.3688 C   0  0  0  0  0  0  0  0  0  0  0  0
    1.7522   -4.3671    0.5134 C   0  0  0  0  0  0  0  0  0  0  0  0
   -1.9912   -9.0546   -0.3667 C   0  0  0  0  0  0  0  0  0  0  0  0
   -2.3111   -9.5175    1.9710 C   0  0  0  0  0  0  0  0  0  0  0  0
   -2.2671   -9.9614    0.6527 C   0  0  0  0  0  0  0  0  0  0  0  0
    1.6338    2.2001   -1.5932 H   0  0  0  0  0  0  0  0  0  0  0  0
    2.6404   -2.5791   -1.4030 H   0  0  0  0  0  0  0  0  0  0  0  0
    3.5880   -2.3863    0.0598 H   0  0  0  0  0  0  0  0  0  0  0  0
    1.7841   -0.8778   -3.3668 H   0  0  0  0  0  0  0  0  0  0  0  0
    0.2575   -0.9730   -2.4638 H   0  0  0  0  0  0  0  0  0  0  0  0
    0.7359    0.5427   -3.2452 H   0  0  0  0  0  0  0  0  0  0  0  0
    3.2066   -0.4788    2.3813 H   0  0  0  0  0  0  0  0  0  0  0  0
    4.6971   -0.4289    1.4146 H   0  0  0  0  0  0  0  0  0  0  0  0
    4.0453    1.0590    2.1158 H   0  0  0  0  0  0  0  0  0  0  0  0
   -1.1031   -4.1054    1.0060 H   0  0  0  0  0  0  0  0  0  0  0  0
   -0.7563   -5.3219   -0.2022 H   0  0  0  0  0  0  0  0  0  0  0  0
   -2.1066   -7.8377    3.2961 H   0  0  0  0  0  0  0  0  0  0  0  0
   -1.5721   -7.0344   -0.9039 H   0  0  0  0  0  0  0  0  0  0  0  0
    1.4575   -2.4272    1.4288 H   0  0  0  0  0  0  0  0  0  0  0  0
    0.5335   -2.6626   -0.0542 H   0  0  0  0  0  0  0  0  0  0  0  0
    1.0769   -6.1963    1.4144 H   0  0  0  0  0  0  0  0  0  0  0  0
    0.7772   -4.7914    2.4052 H   0  0  0  0  0  0  0  0  0  0  0  0
    1.7777   -4.7965   -0.4953 H   0  0  0  0  0  0  0  0  0  0  0  0
    2.7483   -4.5294    0.9455 H   0  0  0  0  0  0  0  0  0  0  0  0
   -1.9838   -9.3886   -1.4020 H   0  0  0  0  0  0  0  0  0  0  0  0
   -2.5442  -10.2170    2.7698 H   0  0  0  0  0  0  0  0  0  0  0  0
   -2.4595  -11.0054    0.4168 H   0  0  0  0  0  0  0  0  0  0  0  0
  2  5  1  0  0  0  0
  3  1  1  0  0  0  0
  3 20  1  0  0  0  0
  4  3  1  0  0  0  0
  4  2  2  0  0  0  0
  5  1  2  0  0  0  0
  6  2  1  0  0  0  0
  6 21  1  0  0  0  0
  6 22  1  0  0  0  0
  7  9  1  0  0  0  0
  8  4  1  0  0  0  0
  8 23  1  0  0  0  0
  8 24  1  0  0  0  0
  8 25  1  0  0  0  0
  9 11  1  0  0  0  0
 10  5  1  0  0  0  0
 10 26  1  0  0  0  0
 10 27  1  0  0  0  0
 10 28  1  0  0  0  0
 11 15  1  0  0  0  0
 11 29  1  0  0  0  0
 11 30  1  0  0  0  0
 12  7  2  0  0  0  0
 12 31  1  0  0  0  0
 13  7  1  0  0  0  0
 13 32  1  0  0  0  0
 14  6  1  0  0  0  0
 14 33  1  0  0  0  0
 14 34  1  0  0  0  0
 15 16  1  0  0  0  0
 15 35  1  0  0  0  0
 15 36  1  0  0  0  0
 16 14  1  0  0  0  0
 16 37  1  0  0  0  0
 16 38  1  0  0  0  0
 17 13  2  0  0  0  0
 17 39  1  0  0  0  0
 18 12  1  0  0  0  0
 18 19  2  0  0  0  0
 18 40  1  0  0  0  0
 19 17  1  0  0  0  0
 19 41  1  0  0  0  0
M  END
>  <Mol_ID>
8632

>  <Formula>
C16H22N2O

>  <MolWeight>
258.35868

>  <Cat>
P2320

>  <Name>
WAY-324461

>  <Synonyms>
N/A

>  <Target>
lipoteichoic acid synthase

>  <Form>
free base

>  <CAS>
415938-68-0

>  <URL>
N/A

$$$$
