WAY-311610
 OpenBabel08302521403D

 38 41  0  0  0  0  0  0  0  0999 V2000
    0.3099    0.6428    0.0223 N   0  0  0  0  0  0  0  0  0  0  0  0
   -0.8133    1.4548    0.0249 C   0  0  0  0  0  0  0  0  0  0  0  0
    0.1894   -0.7511    0.0416 C   0  0  0  0  0  0  0  0  0  0  0  0
    1.5938    1.0145   -0.0129 N   0  0  0  0  0  0  0  0  0  0  0  0
   -2.0322    0.8858    0.0268 C   0  0  0  0  0  0  0  0  0  0  0  0
   -0.6423    2.9277    0.0158 C   0  0  0  0  0  0  0  0  0  0  0  0
    1.4768   -1.2423    0.0006 C   0  0  0  0  0  0  0  0  0  0  0  0
   -1.0270   -1.3771    0.0621 N   0  0  0  0  0  0  0  0  0  0  0  0
    2.3265   -0.1073   -0.0336 C   0  0  0  0  0  0  0  0  0  0  0  0
   -2.0857   -0.6120    0.0355 C   0  0  0  0  0  0  0  0  0  0  0  0
    0.6271    3.3976    0.0378 F   0  0  0  0  0  0  0  0  0  0  0  0
   -1.2327    3.4732   -1.0823 F   0  0  0  0  0  0  0  0  0  0  0  0
   -1.2667    3.4859    1.0895 F   0  0  0  0  0  0  0  0  0  0  0  0
    3.8002   -0.0869   -0.1398 C   0  0  0  0  0  0  0  0  0  0  0  0
   -3.3970   -1.2228    0.0002 C   0  0  0  0  0  0  0  0  0  0  0  0
    4.4716    1.0513    0.3009 N   0  0  0  0  0  0  0  0  0  0  0  0
    4.4082   -1.0531   -0.6062 O   0  0  0  0  0  0  0  0  0  0  0  0
   -3.8008   -2.5441    0.0592 C   0  0  0  0  0  0  0  0  0  0  0  0
   -4.5022   -0.4231   -0.1385 O   0  0  0  0  0  0  0  0  0  0  0  0
    5.8975    1.2224    0.1330 C   0  0  0  0  0  0  0  0  0  0  0  0
    3.9000    2.1722    1.0356 C   0  0  0  0  0  0  0  0  0  0  0  0
   -5.2120   -2.5479   -0.0563 C   0  0  0  0  0  0  0  0  0  0  0  0
   -5.5894   -1.2329   -0.1772 C   0  0  0  0  0  0  0  0  0  0  0  0
    6.2927    2.0952    1.3124 C   0  0  0  0  0  0  0  0  0  0  0  0
    5.0859    3.0034    1.5086 C   0  0  0  0  0  0  0  0  0  0  0  0
   -2.9514    1.4585    0.0195 H   0  0  0  0  0  0  0  0  0  0  0  0
    1.7698   -2.2827   -0.0162 H   0  0  0  0  0  0  0  0  0  0  0  0
   -3.1434   -3.3966    0.1653 H   0  0  0  0  0  0  0  0  0  0  0  0
    6.0524    1.7528   -0.8134 H   0  0  0  0  0  0  0  0  0  0  0  0
    6.4347    0.2712    0.1012 H   0  0  0  0  0  0  0  0  0  0  0  0
    3.3052    1.7972    1.8751 H   0  0  0  0  0  0  0  0  0  0  0  0
    3.2734    2.7710    0.3679 H   0  0  0  0  0  0  0  0  0  0  0  0
   -5.8726   -3.4038   -0.0577 H   0  0  0  0  0  0  0  0  0  0  0  0
   -6.5414   -0.7332   -0.2964 H   0  0  0  0  0  0  0  0  0  0  0  0
    6.4337    1.4726    2.2034 H   0  0  0  0  0  0  0  0  0  0  0  0
    7.2146    2.6562    1.1353 H   0  0  0  0  0  0  0  0  0  0  0  0
    4.9682    3.3224    2.5487 H   0  0  0  0  0  0  0  0  0  0  0  0
    5.1795    3.9038    0.8927 H   0  0  0  0  0  0  0  0  0  0  0  0
  1  2  1  0  0  0  0
  1  3  1  0  0  0  0
  1  4  1  0  0  0  0
  2  5  2  0  0  0  0
  2  6  1  0  0  0  0
  3  7  2  0  0  0  0
  3  8  1  0  0  0  0
  4  9  2  0  0  0  0
  5 10  1  0  0  0  0
  5 26  1  0  0  0  0
  6 11  1  0  0  0  0
  6 12  1  0  0  0  0
  6 13  1  0  0  0  0
  7  9  1  0  0  0  0
  7 27  1  0  0  0  0
  8 10  2  0  0  0  0
  9 14  1  0  0  0  0
 10 15  1  0  0  0  0
 14 16  1  0  0  0  0
 14 17  2  0  0  0  0
 15 18  2  0  0  0  0
 15 19  1  0  0  0  0
 16 20  1  0  0  0  0
 16 21  1  0  0  0  0
 18 22  1  0  0  0  0
 18 28  1  0  0  0  0
 19 23  1  0  0  0  0
 20 24  1  0  0  0  0
 20 29  1  0  0  0  0
 20 30  1  0  0  0  0
 21 25  1  0  0  0  0
 21 31  1  0  0  0  0
 21 32  1  0  0  0  0
 22 23  2  0  0  0  0
 22 33  1  0  0  0  0
 23 34  1  0  0  0  0
 24 25  1  0  0  0  0
 24 35  1  0  0  0  0
 24 36  1  0  0  0  0
 25 37  1  0  0  0  0
 25 38  1  0  0  0  0
M  END
>  <Mol_ID>
8317

>  <Formula>
C16H13F3N4O2

>  <MolWeight>
350.2952296

>  <Cat>
P2209

>  <Name>
WAY-311610

>  <Synonyms>
N/A

>  <Target>
11¦Â-hydroxysteroid dehydrogenase type I ,sodium channel

>  <Form>
free base

>  <CAS>
314051-55-3

>  <URL>
N/A

$$$$
