WAY-324944
 OpenBabel08302521423D

 43 46  0  0  0  0  0  0  0  0999 V2000
   -0.4472    0.3045    0.0254 C   0  0  0  0  0  0  0  0  0  0  0  0
   -1.8513    0.5027    0.0070 C   0  0  0  0  0  0  0  0  0  0  0  0
   -0.1572   -1.0563    0.0195 C   0  0  0  0  0  0  0  0  0  0  0  0
    0.6388    1.1931    0.0427 C   0  0  0  0  0  0  0  0  0  0  0  0
   -2.5736   -0.6567    0.0183 C   0  0  0  0  0  0  0  0  0  0  0  0
   -2.4467    1.7701   -0.0240 N   0  0  0  0  0  0  0  0  0  0  0  0
   -1.5730   -2.0284    0.0304 S   0  0  0  0  0  0  0  0  0  0  0  0
    1.0746   -1.6101    0.0072 N   0  0  0  0  0  0  0  0  0  0  0  0
    1.9314    0.6714    0.0485 C   0  0  0  0  0  0  0  0  0  0  0  0
   -4.0107   -0.6739    0.0168 C   0  0  0  0  0  0  0  0  0  0  0  0
   -3.7417    1.7367   -0.0141 C   0  0  0  0  0  0  0  0  0  0  0  0
    2.0950   -0.7133    0.0079 C   0  0  0  0  0  0  0  0  0  0  0  0
    3.1082    1.6038    0.0291 C   0  0  0  0  0  0  0  0  0  0  0  0
   -4.5521    0.6145    0.0179 N   0  0  0  0  0  0  0  0  0  0  0  0
   -4.6971   -1.6923    0.0013 O   0  0  0  0  0  0  0  0  0  0  0  0
    3.4926   -1.2867    0.0077 C   0  0  0  0  0  0  0  0  0  0  0  0
    4.3634    0.9629    0.2442 O   0  0  0  0  0  0  0  0  0  0  0  0
   -5.9940    0.7908    0.0251 C   0  0  0  0  0  0  0  0  0  0  0  0
    4.5364   -0.2642   -0.4811 C   0  0  0  0  0  0  0  0  0  0  0  0
   -6.4866    0.9116    1.4496 C   0  0  0  0  0  0  0  0  0  0  0  0
    4.4791   -0.0367   -2.0008 C   0  0  0  0  0  0  0  0  0  0  0  0
    5.9471   -0.7514   -0.1224 C   0  0  0  0  0  0  0  0  0  0  0  0
   -6.9266   -0.3533    2.1338 C   0  0  0  0  0  0  0  0  0  0  0  0
   -6.5929    2.0921    2.0856 C   0  0  0  0  0  0  0  0  0  0  0  0
    0.4601    2.2635    0.0425 H   0  0  0  0  0  0  0  0  0  0  0  0
   -4.2932    2.6908   -0.0376 H   0  0  0  0  0  0  0  0  0  0  0  0
    2.9939    2.3495    0.8233 H   0  0  0  0  0  0  0  0  0  0  0  0
    3.1441    2.1403   -0.9257 H   0  0  0  0  0  0  0  0  0  0  0  0
    3.5287   -2.1958   -0.6045 H   0  0  0  0  0  0  0  0  0  0  0  0
    3.7092   -1.5738    1.0447 H   0  0  0  0  0  0  0  0  0  0  0  0
   -6.2406    1.7041   -0.5304 H   0  0  0  0  0  0  0  0  0  0  0  0
   -6.4907   -0.0367   -0.4943 H   0  0  0  0  0  0  0  0  0  0  0  0
    5.1557    0.7744   -2.2939 H   0  0  0  0  0  0  0  0  0  0  0  0
    4.7612   -0.9416   -2.5494 H   0  0  0  0  0  0  0  0  0  0  0  0
    3.4812    0.2554   -2.3427 H   0  0  0  0  0  0  0  0  0  0  0  0
    6.0507   -0.8947    0.9593 H   0  0  0  0  0  0  0  0  0  0  0  0
    6.1931   -1.6924   -0.6241 H   0  0  0  0  0  0  0  0  0  0  0  0
    6.6966   -0.0013   -0.4034 H   0  0  0  0  0  0  0  0  0  0  0  0
   -6.3417   -0.5252    3.0428 H   0  0  0  0  0  0  0  0  0  0  0  0
   -7.9876   -0.2922    2.3988 H   0  0  0  0  0  0  0  0  0  0  0  0
   -6.8063   -1.2291    1.4902 H   0  0  0  0  0  0  0  0  0  0  0  0
   -6.3055    3.0300    1.6207 H   0  0  0  0  0  0  0  0  0  0  0  0
   -6.9694    2.1488    3.1045 H   0  0  0  0  0  0  0  0  0  0  0  0
  1  2  1  0  0  0  0
  1  3  1  0  0  0  0
  1  4  2  0  0  0  0
  2  5  2  0  0  0  0
  2  6  1  0  0  0  0
  3  7  1  0  0  0  0
  3  8  2  0  0  0  0
  4  9  1  0  0  0  0
  4 25  1  0  0  0  0
  5 10  1  0  0  0  0
  5  7  1  0  0  0  0
  6 11  2  0  0  0  0
  8 12  1  0  0  0  0
  9 13  1  0  0  0  0
  9 12  2  0  0  0  0
 10 14  1  0  0  0  0
 10 15  2  0  0  0  0
 11 14  1  0  0  0  0
 11 26  1  0  0  0  0
 12 16  1  0  0  0  0
 13 17  1  0  0  0  0
 13 27  1  0  0  0  0
 13 28  1  0  0  0  0
 14 18  1  0  0  0  0
 16 19  1  0  0  0  0
 16 29  1  0  0  0  0
 16 30  1  0  0  0  0
 17 19  1  0  0  0  0
 18 20  1  0  0  0  0
 18 31  1  0  0  0  0
 18 32  1  0  0  0  0
 19 21  1  0  0  0  0
 19 22  1  0  0  0  0
 20 23  1  0  0  0  0
 20 24  2  0  0  0  0
 21 33  1  0  0  0  0
 21 34  1  0  0  0  0
 21 35  1  0  0  0  0
 22 36  1  0  0  0  0
 22 37  1  0  0  0  0
 22 38  1  0  0  0  0
 23 39  1  0  0  0  0
 23 40  1  0  0  0  0
 23 41  1  0  0  0  0
 24 42  1  0  0  0  0
 24 43  1  0  0  0  0
M  END
>  <Mol_ID>
8662

>  <Formula>
C18H19N3O2S

>  <MolWeight>
341.42736

>  <Cat>
P2361

>  <Name>
WAY-324944

>  <Synonyms>
N/A

>  <Target>
Anti-infection

>  <Form>
free base

>  <CAS>
380580-42-7

>  <URL>
N/A

$$$$
