WAY-332053
 OpenBabel08302521443D

 52 54  0  0  0  0  0  0  0  0999 V2000
   -0.1021    4.3313    1.8521 N   0  0  0  0  0  0  0  0  0  0  0  0
   -0.5805    3.1848    1.2544 C   0  0  0  0  0  0  0  0  0  0  0  0
   -1.0062    4.6236    2.7674 C   0  0  0  0  0  0  0  0  0  0  0  0
   -2.0328    3.7148    2.8424 O   0  0  0  0  0  0  0  0  0  0  0  0
   -1.7470    2.7941    1.8735 C   0  0  0  0  0  0  0  0  0  0  0  0
   -0.6395    3.2738   -1.4705 S   0  0  3  0  0  0  0  0  0  0  0  0
    0.0927    2.6141    0.0699 C   0  0  0  0  0  0  0  0  0  0  0  0
   -0.6926    5.9501   -2.3101 C   0  0  0  0  0  0  0  0  0  0  0  0
   -0.2472    5.0381   -1.1798 C   0  0  0  0  0  0  0  0  0  0  0  0
   -1.0886    5.7998    3.6272 C   0  0  0  0  0  0  0  0  0  0  0  0
   -0.4381    7.2987   -2.0920 N   0  0  0  0  0  0  0  0  0  0  0  0
    0.2163    2.7597   -2.5923 O   0  0  0  0  0  0  0  0  0  0  0  0
   -1.2776    5.5578   -3.3180 O   0  0  0  0  0  0  0  0  0  0  0  0
   -0.0965    6.7901    3.5538 C   0  0  0  0  0  0  0  0  0  0  0  0
   -2.1573    5.9910    4.5116 C   0  0  0  0  0  0  0  0  0  0  0  0
   -2.2381    7.1439    5.2980 C   0  0  0  0  0  0  0  0  0  0  0  0
   -0.1767    7.9453    4.3386 C   0  0  0  0  0  0  0  0  0  0  0  0
   -1.2520    8.1318    5.2137 C   0  0  0  0  0  0  0  0  0  0  0  0
   -0.7315    8.3685   -3.0601 C   0  0  0  0  0  0  0  0  0  0  0  0
   -2.7055    1.6933    1.6731 C   0  0  0  0  0  0  0  0  0  0  0  0
   -1.3479    9.3836    6.0345 C   0  0  0  0  0  0  0  0  0  0  0  0
   -2.2346    8.5499   -3.3455 C   0  0  0  0  0  0  0  0  0  0  0  0
    0.0621    8.1982   -4.3664 C   0  0  0  0  0  0  0  0  0  0  0  0
   -2.5029    9.6316   -4.4006 C   0  0  0  0  0  0  0  0  0  0  0  0
   -0.2133    9.3115   -5.3769 C   0  0  0  0  0  0  0  0  0  0  0  0
   -1.7040    9.3968   -5.6797 C   0  0  0  0  0  0  0  0  0  0  0  0
    1.1643    2.8340    0.0720 H   0  0  0  0  0  0  0  0  0  0  0  0
   -0.0242    1.5245    0.0478 H   0  0  0  0  0  0  0  0  0  0  0  0
   -0.8045    5.3606   -0.2962 H   0  0  0  0  0  0  0  0  0  0  0  0
    0.8285    5.1347   -1.0040 H   0  0  0  0  0  0  0  0  0  0  0  0
    0.0327    7.5676   -1.2329 H   0  0  0  0  0  0  0  0  0  0  0  0
    0.7474    6.6691    2.8763 H   0  0  0  0  0  0  0  0  0  0  0  0
   -2.9462    5.2464    4.5914 H   0  0  0  0  0  0  0  0  0  0  0  0
   -3.0834    7.2641    5.9719 H   0  0  0  0  0  0  0  0  0  0  0  0
    0.6027    8.7004    4.2593 H   0  0  0  0  0  0  0  0  0  0  0  0
   -0.3814    9.2888   -2.5712 H   0  0  0  0  0  0  0  0  0  0  0  0
   -2.7791    1.0784    2.5746 H   0  0  0  0  0  0  0  0  0  0  0  0
   -3.6985    2.0831    1.4317 H   0  0  0  0  0  0  0  0  0  0  0  0
   -2.3896    1.0459    0.8486 H   0  0  0  0  0  0  0  0  0  0  0  0
   -0.4631    9.4912    6.6695 H   0  0  0  0  0  0  0  0  0  0  0  0
   -1.4313   10.2563    5.3787 H   0  0  0  0  0  0  0  0  0  0  0  0
   -2.2283    9.3685    6.6857 H   0  0  0  0  0  0  0  0  0  0  0  0
   -2.6742    7.6094   -3.6956 H   0  0  0  0  0  0  0  0  0  0  0  0
   -2.7629    8.8110   -2.4203 H   0  0  0  0  0  0  0  0  0  0  0  0
    1.1351    8.1493   -4.1523 H   0  0  0  0  0  0  0  0  0  0  0  0
   -0.2082    7.2479   -4.8400 H   0  0  0  0  0  0  0  0  0  0  0  0
   -3.5722    9.6567   -4.6407 H   0  0  0  0  0  0  0  0  0  0  0  0
   -2.2459   10.6163   -3.9910 H   0  0  0  0  0  0  0  0  0  0  0  0
    0.3373    9.1076   -6.3027 H   0  0  0  0  0  0  0  0  0  0  0  0
    0.1479   10.2757   -4.9971 H   0  0  0  0  0  0  0  0  0  0  0  0
   -2.0325    8.4630   -6.1532 H   0  0  0  0  0  0  0  0  0  0  0  0
   -1.8959   10.2011   -6.3996 H   0  0  0  0  0  0  0  0  0  0  0  0
  2  1  1  0  0  0  0
  3  1  2  0  0  0  0
  4  3  1  0  0  0  0
  5  2  2  0  0  0  0
  5  4  1  0  0  0  0
  6  7  1  0  0  0  0
  7  2  1  0  0  0  0
  7 27  1  0  0  0  0
  7 28  1  0  0  0  0
  8  9  1  0  0  0  0
  9  6  1  0  0  0  0
  9 29  1  0  0  0  0
  9 30  1  0  0  0  0
 10  3  1  0  0  0  0
 11  8  1  0  0  0  0
 11 31  1  0  0  0  0
 12  6  2  0  0  0  0
 13  8  2  0  0  0  0
 14 10  2  0  0  0  0
 14 32  1  0  0  0  0
 15 10  1  0  0  0  0
 15 33  1  0  0  0  0
 16 15  2  0  0  0  0
 16 34  1  0  0  0  0
 17 14  1  0  0  0  0
 17 35  1  0  0  0  0
 18 16  1  0  0  0  0
 18 17  2  0  0  0  0
 19 11  1  0  0  0  0
 19 36  1  0  0  0  0
 20  5  1  0  0  0  0
 20 37  1  0  0  0  0
 20 38  1  0  0  0  0
 20 39  1  0  0  0  0
 21 18  1  0  0  0  0
 21 40  1  0  0  0  0
 21 41  1  0  0  0  0
 21 42  1  0  0  0  0
 22 19  1  0  0  0  0
 22 43  1  0  0  0  0
 22 44  1  0  0  0  0
 23 19  1  0  0  0  0
 23 45  1  0  0  0  0
 23 46  1  0  0  0  0
 24 22  1  0  0  0  0
 24 26  1  0  0  0  0
 24 47  1  0  0  0  0
 24 48  1  0  0  0  0
 25 23  1  0  0  0  0
 25 49  1  0  0  0  0
 25 50  1  0  0  0  0
 26 25  1  0  0  0  0
 26 51  1  0  0  0  0
 26 52  1  0  0  0  0
M  END
>  <Mol_ID>
9238

>  <Formula>
C20H26N2O3S

>  <MolWeight>
374.49704

>  <Cat>
P2699

>  <Name>
WAY-332053

>  <Synonyms>
N/A

>  <Target>
beta-catenin

>  <Form>
free base

>  <CAS>
958180-89-7

>  <URL>
N/A

$$$$
