WAY-326396
 OpenBabel08302521433D

 57 61  0  0  0  0  0  0  0  0999 V2000
   -0.3214   -0.8537   -0.0807 C   0  0  0  0  0  0  0  0  0  0  0  0
   -0.6010    0.4738   -0.0973 C   0  0  0  0  0  0  0  0  0  0  0  0
   -1.4451   -1.6120   -0.0865 N   0  0  0  0  0  0  0  0  0  0  0  0
   -1.9805    0.5487   -0.1413 N   0  0  0  0  0  0  0  0  0  0  0  0
    0.9648   -1.3356   -0.0341 N   0  0  0  0  0  0  0  0  0  0  0  0
   -2.4590   -0.7662   -0.1204 C   0  0  0  0  0  0  0  0  0  0  0  0
    1.7168    0.9347   -0.0328 N   0  0  0  0  0  0  0  0  0  0  0  0
    2.0311   -0.4364   -0.0085 C   0  0  0  0  0  0  0  0  0  0  0  0
    0.4207    1.4709   -0.0600 C   0  0  0  0  0  0  0  0  0  0  0  0
   -3.7668   -1.1286   -0.0034 N   0  0  0  0  0  0  0  0  0  0  0  0
   -2.7374    1.7909   -0.0156 C   0  0  0  0  0  0  0  0  0  0  0  0
   -5.8867   -2.8343   -0.9953 N   0  0  0  0  0  0  0  0  0  0  0  0
   -3.0829    2.4476   -1.3385 C   0  0  0  0  0  0  0  0  0  0  0  0
   -7.1222   -3.4323   -1.0173 C   0  0  0  0  0  0  0  0  0  0  0  0
    3.2036   -0.8283    0.0331 O   0  0  0  0  0  0  0  0  0  0  0  0
    0.1951    2.6773   -0.0558 O   0  0  0  0  0  0  0  0  0  0  0  0
   -7.5348   -4.0931    0.0888 N   0  0  0  0  0  0  0  0  0  0  0  0
   -4.0868   -2.4175    0.6657 C   0  0  0  0  0  0  0  0  0  0  0  0
   -4.8511   -0.5817   -0.8351 C   0  0  0  0  0  0  0  0  0  0  0  0
   -5.5294   -1.6357   -1.7507 C   0  0  0  0  0  0  0  0  0  0  0  0
   -4.7767   -3.4451   -0.2563 C   0  0  0  0  0  0  0  0  0  0  0  0
   -4.2367    3.2476   -1.4166 C   0  0  0  0  0  0  0  0  0  0  0  0
    1.2033   -2.7643   -0.0003 C   0  0  0  0  0  0  0  0  0  0  0  0
    2.8139    1.8847   -0.0084 C   0  0  0  0  0  0  0  0  0  0  0  0
   -2.2894    2.3231   -2.4898 C   0  0  0  0  0  0  0  0  0  0  0  0
   -7.9574   -3.3623   -2.1336 C   0  0  0  0  0  0  0  0  0  0  0  0
   -8.7729   -4.6438    0.0995 C   0  0  0  0  0  0  0  0  0  0  0  0
   -4.6278    3.8277   -2.6264 C   0  0  0  0  0  0  0  0  0  0  0  0
   -2.6810    2.9031   -3.6986 C   0  0  0  0  0  0  0  0  0  0  0  0
   -9.2222   -3.9568   -2.1152 C   0  0  0  0  0  0  0  0  0  0  0  0
   -9.6490   -4.6039   -0.9686 C   0  0  0  0  0  0  0  0  0  0  0  0
   -3.8592    3.6393   -3.7716 C   0  0  0  0  0  0  0  0  0  0  0  0
   -3.6488    1.5540    0.5447 H   0  0  0  0  0  0  0  0  0  0  0  0
   -2.1649    2.4860    0.6062 H   0  0  0  0  0  0  0  0  0  0  0  0
   -3.1945   -2.8859    1.1000 H   0  0  0  0  0  0  0  0  0  0  0  0
   -4.7548   -2.1942    1.5058 H   0  0  0  0  0  0  0  0  0  0  0  0
   -5.6076   -0.1638   -0.1593 H   0  0  0  0  0  0  0  0  0  0  0  0
   -4.5047    0.2264   -1.4794 H   0  0  0  0  0  0  0  0  0  0  0  0
   -4.8477   -1.9174   -2.5614 H   0  0  0  0  0  0  0  0  0  0  0  0
   -6.4053   -1.1602   -2.2067 H   0  0  0  0  0  0  0  0  0  0  0  0
   -4.0506   -3.8220   -0.9883 H   0  0  0  0  0  0  0  0  0  0  0  0
   -5.0872   -4.3105    0.3412 H   0  0  0  0  0  0  0  0  0  0  0  0
   -4.8497    3.4183   -0.5334 H   0  0  0  0  0  0  0  0  0  0  0  0
    0.7384   -3.1811    0.8989 H   0  0  0  0  0  0  0  0  0  0  0  0
    0.7560   -3.2190   -0.8901 H   0  0  0  0  0  0  0  0  0  0  0  0
    2.2697   -3.0027    0.0151 H   0  0  0  0  0  0  0  0  0  0  0  0
    2.7458    2.5290   -0.8904 H   0  0  0  0  0  0  0  0  0  0  0  0
    2.7285    2.5117    0.8855 H   0  0  0  0  0  0  0  0  0  0  0  0
    3.7962    1.4038   -0.0045 H   0  0  0  0  0  0  0  0  0  0  0  0
   -1.3556    1.7682   -2.4741 H   0  0  0  0  0  0  0  0  0  0  0  0
   -7.6242   -2.8778   -3.0440 H   0  0  0  0  0  0  0  0  0  0  0  0
   -9.0531   -5.1331    1.0281 H   0  0  0  0  0  0  0  0  0  0  0  0
   -5.5339    4.4264   -2.6760 H   0  0  0  0  0  0  0  0  0  0  0  0
   -2.0621    2.7769   -4.5836 H   0  0  0  0  0  0  0  0  0  0  0  0
   -9.8609   -3.9123   -2.9926 H   0  0  0  0  0  0  0  0  0  0  0  0
  -10.6266   -5.0659   -0.9098 H   0  0  0  0  0  0  0  0  0  0  0  0
   -4.1695    4.0760   -4.7172 H   0  0  0  0  0  0  0  0  0  0  0  0
  2  1  2  0  0  0  0
  3  1  1  0  0  0  0
  4  2  1  0  0  0  0
  4  6  1  0  0  0  0
  5  1  1  0  0  0  0
  6  3  2  0  0  0  0
  7  8  1  0  0  0  0
  8  5  1  0  0  0  0
  9  2  1  0  0  0  0
  9  7  1  0  0  0  0
 10  6  1  0  0  0  0
 11  4  1  0  0  0  0
 11 33  1  0  0  0  0
 11 34  1  0  0  0  0
 12 20  1  0  0  0  0
 12 21  1  0  0  0  0
 13 11  1  0  0  0  0
 14 12  1  0  0  0  0
 15  8  2  0  0  0  0
 16  9  2  0  0  0  0
 17 14  2  0  0  0  0
 18 10  1  0  0  0  0
 18 35  1  0  0  0  0
 18 36  1  0  0  0  0
 19 10  1  0  0  0  0
 19 37  1  0  0  0  0
 19 38  1  0  0  0  0
 20 19  1  0  0  0  0
 20 39  1  0  0  0  0
 20 40  1  0  0  0  0
 21 18  1  0  0  0  0
 21 41  1  0  0  0  0
 21 42  1  0  0  0  0
 22 13  2  0  0  0  0
 22 43  1  0  0  0  0
 23  5  1  0  0  0  0
 23 44  1  0  0  0  0
 23 45  1  0  0  0  0
 23 46  1  0  0  0  0
 24  7  1  0  0  0  0
 24 47  1  0  0  0  0
 24 48  1  0  0  0  0
 24 49  1  0  0  0  0
 25 13  1  0  0  0  0
 25 50  1  0  0  0  0
 26 14  1  0  0  0  0
 26 51  1  0  0  0  0
 27 17  1  0  0  0  0
 27 52  1  0  0  0  0
 28 22  1  0  0  0  0
 28 53  1  0  0  0  0
 29 25  2  0  0  0  0
 29 54  1  0  0  0  0
 30 26  2  0  0  0  0
 30 55  1  0  0  0  0
 31 30  1  0  0  0  0
 31 27  2  0  0  0  0
 31 56  1  0  0  0  0
 32 29  1  0  0  0  0
 32 28  2  0  0  0  0
 32 57  1  0  0  0  0
M  END
>  <Mol_ID>
8919

>  <Formula>
C23H24ClN7O2

>  <MolWeight>
465.93536

>  <Cat>
P2478

>  <Name>
WAY-326396

>  <Synonyms>
N/A

>  <Target>
liver X receptor

>  <Form>
free base

>  <CAS>
870760-24-0

>  <URL>
N/A

$$$$
