WAY-333449
 OpenBabel08302521453D

 43 47  0  0  0  0  0  0  0  0999 V2000
    0.1190    0.6791    0.0627 N   0  0  0  0  0  0  0  0  0  0  0  0
    1.4090    1.1746    0.0163 C   0  0  0  0  0  0  0  0  0  0  0  0
    2.2481    0.1484    0.0083 N   0  0  0  0  0  0  0  0  0  0  0  0
   -2.3795    2.8603    3.8861 C   0  0  0  0  0  0  0  0  0  0  0  0
    0.2487   -0.6956    0.0465 C   0  0  0  0  0  0  0  0  0  0  0  0
   -1.0541    1.3899    0.0936 N   0  0  0  0  0  0  0  0  0  0  0  0
    1.5207   -1.0209    0.0119 N   0  0  0  0  0  0  0  0  0  0  0  0
   -1.9774    2.0940    4.8672 N   0  0  0  0  0  0  0  0  0  0  0  0
   -1.8960    4.4919    3.9459 S   0  0  0  0  0  0  0  0  0  0  0  0
   -3.1309    2.4989    2.8010 N   0  0  0  0  0  0  0  0  0  0  0  0
   -2.1026    0.6365    0.0864 C   0  0  0  0  0  0  0  0  0  0  0  0
   -0.9329   -1.4676    0.0613 C   0  0  0  0  0  0  0  0  0  0  0  0
   -1.2284    2.8354    5.7597 C   0  0  0  0  0  0  0  0  0  0  0  0
   -1.0989    4.1912    5.4524 C   0  0  0  0  0  0  0  0  0  0  0  0
    1.7810    2.5920    0.0108 C   0  0  0  0  0  0  0  0  0  0  0  0
   -3.7712    1.2804    2.7648 C   0  0  0  0  0  0  0  0  0  0  0  0
   -2.1245   -0.8473    0.0774 C   0  0  0  0  0  0  0  0  0  0  0  0
   -3.6420    1.4540   -0.0368 S   0  0  0  0  0  0  0  0  0  0  0  0
   -3.8963    0.5069    3.7137 O   0  0  0  0  0  0  0  0  0  0  0  0
    2.9959    2.9875    0.5942 C   0  0  0  0  0  0  0  0  0  0  0  0
    0.9649    3.5783   -0.5699 C   0  0  0  0  0  0  0  0  0  0  0  0
   -4.4797    0.9332    1.4702 C   0  0  0  0  0  0  0  0  0  0  0  0
    2.5331    5.2904    0.0609 C   0  0  0  0  0  0  0  0  0  0  0  0
    3.3686    4.3341    0.6233 C   0  0  0  0  0  0  0  0  0  0  0  0
    1.3355    4.9239   -0.5401 C   0  0  0  0  0  0  0  0  0  0  0  0
    2.8850    6.5811    0.0927 F   0  0  0  0  0  0  0  0  0  0  0  0
   -0.6089    2.3315    6.9193 C   0  0  0  0  0  0  0  0  0  0  0  0
   -0.3954    5.0698    6.2937 C   0  0  0  0  0  0  0  0  0  0  0  0
    0.2095    4.5461    7.4438 C   0  0  0  0  0  0  0  0  0  0  0  0
    0.1151    3.1907    7.7496 C   0  0  0  0  0  0  0  0  0  0  0  0
   -3.2142    3.1614    2.0399 H   0  0  0  0  0  0  0  0  0  0  0  0
   -0.8511   -2.5485    0.0512 H   0  0  0  0  0  0  0  0  0  0  0  0
   -3.0571   -1.3943    0.0726 H   0  0  0  0  0  0  0  0  0  0  0  0
    3.6560    2.2436    1.0384 H   0  0  0  0  0  0  0  0  0  0  0  0
    0.0315    3.3148   -1.0615 H   0  0  0  0  0  0  0  0  0  0  0  0
   -5.4723    1.3928    1.4948 H   0  0  0  0  0  0  0  0  0  0  0  0
   -4.6196   -0.1526    1.4394 H   0  0  0  0  0  0  0  0  0  0  0  0
    4.3025    4.6400    1.0833 H   0  0  0  0  0  0  0  0  0  0  0  0
    0.6993    5.6833   -0.9828 H   0  0  0  0  0  0  0  0  0  0  0  0
   -0.6952    1.2751    7.1538 H   0  0  0  0  0  0  0  0  0  0  0  0
   -0.3143    6.1275    6.0609 H   0  0  0  0  0  0  0  0  0  0  0  0
    0.7702    5.2041    8.1044 H   0  0  0  0  0  0  0  0  0  0  0  0
    0.6016    2.7949    8.6370 H   0  0  0  0  0  0  0  0  0  0  0  0
  2  1  1  0  0  0  0
  3  2  2  0  0  0  0
  4 10  1  0  0  0  0
  5  1  1  0  0  0  0
  6  1  1  0  0  0  0
  7  5  2  0  0  0  0
  7  3  1  0  0  0  0
  8  4  2  0  0  0  0
  9  4  1  0  0  0  0
 10 16  1  0  0  0  0
 10 31  1  0  0  0  0
 11  6  2  0  0  0  0
 12  5  1  0  0  0  0
 12 32  1  0  0  0  0
 13  8  1  0  0  0  0
 13 14  2  0  0  0  0
 14  9  1  0  0  0  0
 15  2  1  0  0  0  0
 16 22  1  0  0  0  0
 17 11  1  0  0  0  0
 17 12  2  0  0  0  0
 17 33  1  0  0  0  0
 18 11  1  0  0  0  0
 19 16  2  0  0  0  0
 20 15  2  0  0  0  0
 20 34  1  0  0  0  0
 21 15  1  0  0  0  0
 21 35  1  0  0  0  0
 22 18  1  0  0  0  0
 22 36  1  0  0  0  0
 22 37  1  0  0  0  0
 23 25  1  0  0  0  0
 24 20  1  0  0  0  0
 24 23  2  0  0  0  0
 24 38  1  0  0  0  0
 25 21  2  0  0  0  0
 25 39  1  0  0  0  0
 26 23  1  0  0  0  0
 27 13  1  0  0  0  0
 27 40  1  0  0  0  0
 28 14  1  0  0  0  0
 28 41  1  0  0  0  0
 29 28  2  0  0  0  0
 29 30  1  0  0  0  0
 29 42  1  0  0  0  0
 30 27  2  0  0  0  0
 30 43  1  0  0  0  0
M  END
>  <Mol_ID>
9325

>  <Formula>
C20H13FN6OS2

>  <MolWeight>
436.4852232

>  <Cat>
P2728

>  <Name>
WAY-333449

>  <Synonyms>
N/A

>  <Target>
others

>  <Form>
free base

>  <CAS>
721964-46-1

>  <URL>
N/A

$$$$
