WHI-P154.cdx
 OpenBabel08302521593D

 37 39  0  0  0  0  0  0  0  0999 V2000
   -1.1081   -1.3423   -0.0109 N   0  0  0  0  0  0  0  0  0  0  0  0
   -2.2576   -0.6619   -0.0044 C   0  0  0  0  0  0  0  0  0  0  0  0
   -2.3775    0.6647    0.0082 N   0  0  0  0  0  0  0  0  0  0  0  0
   -1.2368    1.3815    0.0321 C   0  0  0  0  0  0  0  0  0  0  0  0
    0.0308    0.7670    0.0118 C   0  0  0  0  0  0  0  0  0  0  0  0
    1.2841    1.4251    0.0390 C   0  0  0  0  0  0  0  0  0  0  0  0
    2.5321    0.7486    0.0282 C   0  0  0  0  0  0  0  0  0  0  0  0
    2.5074   -0.6449    0.0098 C   0  0  0  0  0  0  0  0  0  0  0  0
    1.2364   -1.2797    0.0013 C   0  0  0  0  0  0  0  0  0  0  0  0
    0.0167   -0.6196    0.0014 C   0  0  0  0  0  0  0  0  0  0  0  0
    3.4351   -1.6365   -0.0026 O   0  0  0  0  0  0  0  0  0  0  0  0
    4.8278   -1.4781   -0.0174 C   0  0  0  0  0  0  0  0  0  0  0  0
    3.4963    1.7035    0.0381 O   0  0  0  0  0  0  0  0  0  0  0  0
    4.8819    1.4878    0.0217 C   0  0  0  0  0  0  0  0  0  0  0  0
   -1.3478    2.7963    0.0492 N   0  0  0  0  0  0  0  0  0  0  0  0
   -2.4238    3.5073    0.6356 C   0  0  0  0  0  0  0  0  0  0  0  0
   -3.0858    3.0001    1.7655 C   0  0  0  0  0  0  0  0  0  0  0  0
   -4.1038    3.7180    2.3875 C   0  0  0  0  0  0  0  0  0  0  0  0
   -4.4591    4.9764    1.9056 C   0  0  0  0  0  0  0  0  0  0  0  0
   -3.7854    5.5194    0.8113 C   0  0  0  0  0  0  0  0  0  0  0  0
   -2.7584    4.7940    0.1928 C   0  0  0  0  0  0  0  0  0  0  0  0
   -5.4584    5.6788    2.5134 O   0  0  0  0  0  0  0  0  0  0  0  0
   -4.9586    2.9463    3.8943 Br  0  0  0  0  0  0  0  0  0  0  0  0
   -3.1744   -1.2383   -0.0149 H   0  0  0  0  0  0  0  0  0  0  0  0
    1.2960    2.5159    0.0811 H   0  0  0  0  0  0  0  0  0  0  0  0
    1.2040   -2.3707   -0.0070 H   0  0  0  0  0  0  0  0  0  0  0  0
    5.1628   -1.0111   -0.9439 H   0  0  0  0  0  0  0  0  0  0  0  0
    5.1802   -0.9885    0.8882 H   0  0  0  0  0  0  0  0  0  0  0  0
    5.2725   -2.4792   -0.0038 H   0  0  0  0  0  0  0  0  0  0  0  0
    5.2146    0.9799    0.9255 H   0  0  0  0  0  0  0  0  0  0  0  0
    5.2008    1.0138   -0.9066 H   0  0  0  0  0  0  0  0  0  0  0  0
    5.3641    2.4711    0.0407 H   0  0  0  0  0  0  0  0  0  0  0  0
   -1.0957    3.1562   -0.8680 H   0  0  0  0  0  0  0  0  0  0  0  0
   -2.8055    2.0270    2.1603 H   0  0  0  0  0  0  0  0  0  0  0  0
   -4.0380    6.5060    0.4328 H   0  0  0  0  0  0  0  0  0  0  0  0
   -2.2328    5.2430   -0.6456 H   0  0  0  0  0  0  0  0  0  0  0  0
   -5.5786    6.5289    2.0532 H   0  0  0  0  0  0  0  0  0  0  0  0
  1  2  2  0  0  0  0
  1 10  1  0  0  0  0
  2  3  1  0  0  0  0
  2 24  1  0  0  0  0
  3  4  2  0  0  0  0
  4  5  1  0  0  0  0
  4 15  1  0  0  0  0
  5  6  1  0  0  0  0
  5 10  2  0  0  0  0
  6  7  2  0  0  0  0
  6 25  1  0  0  0  0
  7  8  1  0  0  0  0
  7 13  1  0  0  0  0
  8  9  2  0  0  0  0
  8 11  1  0  0  0  0
  9 10  1  0  0  0  0
  9 26  1  0  0  0  0
 11 12  1  0  0  0  0
 12 27  1  0  0  0  0
 12 28  1  0  0  0  0
 12 29  1  0  0  0  0
 13 14  1  0  0  0  0
 14 30  1  0  0  0  0
 14 31  1  0  0  0  0
 14 32  1  0  0  0  0
 15 16  1  0  0  0  0
 15 33  1  0  0  0  0
 16 17  2  0  0  0  0
 16 21  1  0  0  0  0
 17 18  1  0  0  0  0
 17 34  1  0  0  0  0
 18 19  2  0  0  0  0
 18 23  1  0  0  0  0
 19 20  1  0  0  0  0
 19 22  1  0  0  0  0
 20 21  2  0  0  0  0
 20 35  1  0  0  0  0
 21 36  1  0  0  0  0
 22 37  1  0  0  0  0
M  END
>  <Mol_ID>
1031

>  <Formula>
C16H14BrN3O3

>  <MolWeight>
376.20466

>  <Cat>
S2867

>  <Name>
WHI-P154

>  <Synonyms>
N/A

>  <Target>
EGFR,JAK

>  <Form>
free base

>  <CAS>
211555-04-3

>  <URL>
http://selleckchem.com/products/whi-p154.html

$$$$
