WHI-P97
 OpenBabel08302520143D

 37 39  0  0  0  0  0  0  0  0999 V2000
   -1.6815   -3.1226   -3.6040 C   0  0  0  0  0  0  0  0  0  0  0  0
   -2.4630   -3.2278   -2.4511 C   0  0  0  0  0  0  0  0  0  0  0  0
   -1.8723   -3.5393   -1.2175 C   0  0  0  0  0  0  0  0  0  0  0  0
   -0.4953   -3.7774   -1.1275 C   0  0  0  0  0  0  0  0  0  0  0  0
    0.2840   -3.5931   -2.2832 C   0  0  0  0  0  0  0  0  0  0  0  0
   -0.3026   -3.2896   -3.5083 C   0  0  0  0  0  0  0  0  0  0  0  0
    0.1051   -4.1171    0.1046 N   0  0  0  0  0  0  0  0  0  0  0  0
    3.6521   -6.2567    0.3671 N   0  0  0  0  0  0  0  0  0  0  0  0
    2.7498   -6.4195   -0.6084 C   0  0  0  0  0  0  0  0  0  0  0  0
    1.5860   -5.7769   -0.7182 N   0  0  0  0  0  0  0  0  0  0  0  0
    1.2791   -4.9050    0.2574 C   0  0  0  0  0  0  0  0  0  0  0  0
    2.1292   -4.7020    1.3644 C   0  0  0  0  0  0  0  0  0  0  0  0
    1.8649   -3.8147    2.4358 C   0  0  0  0  0  0  0  0  0  0  0  0
    2.8179   -3.5211    3.4312 C   0  0  0  0  0  0  0  0  0  0  0  0
    4.0668   -4.1428    3.3518 C   0  0  0  0  0  0  0  0  0  0  0  0
    4.2876   -5.0844    2.3212 C   0  0  0  0  0  0  0  0  0  0  0  0
    3.3385   -5.3851    1.3402 C   0  0  0  0  0  0  0  0  0  0  0  0
    5.2134   -3.7575    3.9942 O   0  0  0  0  0  0  0  0  0  0  0  0
    2.2987   -2.5849    4.2676 O   0  0  0  0  0  0  0  0  0  0  0  0
    2.9868   -2.0865    5.3883 C   0  0  0  0  0  0  0  0  0  0  0  0
    0.8110   -3.1265   -5.0359 Br  0  0  0  0  0  0  0  0  0  0  0  0
   -4.3438   -2.9759   -2.5111 Br  0  0  0  0  0  0  0  0  0  0  0  0
   -2.2741   -2.8606   -4.8115 O   0  0  0  0  0  0  0  0  0  0  0  0
    5.3175   -4.0269    5.3846 C   0  0  0  0  0  0  0  0  0  0  0  0
   -2.4960   -3.6152   -0.3311 H   0  0  0  0  0  0  0  0  0  0  0  0
    1.3649   -3.6998   -2.2235 H   0  0  0  0  0  0  0  0  0  0  0  0
   -0.5514   -4.3095    0.8552 H   0  0  0  0  0  0  0  0  0  0  0  0
    2.9919   -7.1268   -1.3928 H   0  0  0  0  0  0  0  0  0  0  0  0
    0.9238   -3.2766    2.4580 H   0  0  0  0  0  0  0  0  0  0  0  0
    5.2668   -5.5595    2.2385 H   0  0  0  0  0  0  0  0  0  0  0  0
    3.1355   -2.8640    6.1408 H   0  0  0  0  0  0  0  0  0  0  0  0
    3.9082   -1.5782    5.0979 H   0  0  0  0  0  0  0  0  0  0  0  0
    2.3390   -1.3359    5.8549 H   0  0  0  0  0  0  0  0  0  0  0  0
   -1.5766   -2.8773   -5.4920 H   0  0  0  0  0  0  0  0  0  0  0  0
    5.3254   -3.0704    5.9156 H   0  0  0  0  0  0  0  0  0  0  0  0
    4.5341   -4.6819    5.7754 H   0  0  0  0  0  0  0  0  0  0  0  0
    6.2932   -4.4785    5.5888 H   0  0  0  0  0  0  0  0  0  0  0  0
  1  2  2  0  0  0  0
  1  6  1  0  0  0  0
  1 23  1  0  0  0  0
  2  3  1  0  0  0  0
  2 22  1  0  0  0  0
  3  4  2  0  0  0  0
  3 25  1  0  0  0  0
  4  5  1  0  0  0  0
  4  7  1  0  0  0  0
  5  6  2  0  0  0  0
  5 26  1  0  0  0  0
  6 21  1  0  0  0  0
  7 11  1  0  0  0  0
  7 27  1  0  0  0  0
  8  9  2  0  0  0  0
  8 17  1  0  0  0  0
  9 10  1  0  0  0  0
  9 28  1  0  0  0  0
 10 11  2  0  0  0  0
 11 12  1  0  0  0  0
 12 13  1  0  0  0  0
 12 17  2  0  0  0  0
 13 14  2  0  0  0  0
 13 29  1  0  0  0  0
 14 15  1  0  0  0  0
 14 19  1  0  0  0  0
 15 16  2  0  0  0  0
 15 18  1  0  0  0  0
 16 17  1  0  0  0  0
 16 30  1  0  0  0  0
 18 24  1  0  0  0  0
 19 20  1  0  0  0  0
 20 31  1  0  0  0  0
 20 32  1  0  0  0  0
 20 33  1  0  0  0  0
 23 34  1  0  0  0  0
 24 35  1  0  0  0  0
 24 36  1  0  0  0  0
 24 37  1  0  0  0  0
M  END
>  <Mol_ID>
3171

>  <Formula>
C16H13Br2N3O3

>  <MolWeight>
455.10072

>  <Cat>
S5904

>  <Name>
WHI-P97

>  <Synonyms>
N/A

>  <Target>
JAK

>  <Form>
Free Base

>  <CAS>
211555-05-4

>  <URL>
http://www.selleckchem.com/products/whi-p97.html

$$$$
