WL-149027
 OpenBabel08302521403D

 29 31  0  0  0  0  0  0  0  0999 V2000
   -0.1296   -1.3045    0.0311 C   0  0  0  0  0  0  0  0  0  0  0  0
    1.1289   -0.6846    0.0403 N   0  0  0  0  0  0  0  0  0  0  0  0
   -0.4358   -2.7405    0.0749 C   0  0  0  0  0  0  0  0  0  0  0  0
   -1.0663   -0.3696    0.0262 N   0  0  0  0  0  0  0  0  0  0  0  0
    2.4102   -1.3085   -0.0325 C   0  0  0  0  0  0  0  0  0  0  0  0
    0.8278    0.6715    0.1069 C   0  0  0  0  0  0  0  0  0  0  0  0
    0.2860   -3.6415    0.8724 C   0  0  0  0  0  0  0  0  0  0  0  0
   -1.5126   -3.2349   -0.6790 C   0  0  0  0  0  0  0  0  0  0  0  0
   -0.4706    0.8546    0.0982 N   0  0  0  0  0  0  0  0  0  0  0  0
    2.6043   -2.4241   -0.8612 C   0  0  0  0  0  0  0  0  0  0  0  0
    3.4829   -0.8316    0.7348 C   0  0  0  0  0  0  0  0  0  0  0  0
    1.9405    2.0017    0.0063 S   0  0  0  0  0  0  0  0  0  0  0  0
    0.0005   -5.0083    0.8427 C   0  0  0  0  0  0  0  0  0  0  0  0
   -1.8142   -4.5989   -0.6899 C   0  0  0  0  0  0  0  0  0  0  0  0
    3.8482   -3.0567   -0.9131 C   0  0  0  0  0  0  0  0  0  0  0  0
    4.7320   -1.4519    0.6550 C   0  0  0  0  0  0  0  0  0  0  0  0
   -1.0445   -5.4875    0.0573 C   0  0  0  0  0  0  0  0  0  0  0  0
    4.9145   -2.5646   -0.1642 C   0  0  0  0  0  0  0  0  0  0  0  0
    1.0914   -3.2959    1.5160 H   0  0  0  0  0  0  0  0  0  0  0  0
   -2.1258   -2.5523   -1.2665 H   0  0  0  0  0  0  0  0  0  0  0  0
    1.8077   -2.8185   -1.4889 H   0  0  0  0  0  0  0  0  0  0  0  0
    3.3688   -0.0092    1.4368 H   0  0  0  0  0  0  0  0  0  0  0  0
    3.0150    1.3701   -0.4826 H   0  0  0  0  0  0  0  0  0  0  0  0
    0.5968   -5.6979    1.4352 H   0  0  0  0  0  0  0  0  0  0  0  0
   -2.6493   -4.9657   -1.2810 H   0  0  0  0  0  0  0  0  0  0  0  0
    3.9852   -3.9344   -1.5394 H   0  0  0  0  0  0  0  0  0  0  0  0
    5.5637   -1.0740    1.2466 H   0  0  0  0  0  0  0  0  0  0  0  0
   -1.2672   -6.5512    0.0375 H   0  0  0  0  0  0  0  0  0  0  0  0
    5.8843   -3.0534   -0.2094 H   0  0  0  0  0  0  0  0  0  0  0  0
  1  2  1  0  0  0  0
  1  3  1  0  0  0  0
  1  4  2  0  0  0  0
  2  5  1  0  0  0  0
  2  6  1  0  0  0  0
  3  7  2  0  0  0  0
  3  8  1  0  0  0  0
  4  9  1  0  0  0  0
  5 10  2  0  0  0  0
  5 11  1  0  0  0  0
  6 12  1  0  0  0  0
  6  9  2  0  0  0  0
  7 13  1  0  0  0  0
  7 19  1  0  0  0  0
  8 14  2  0  0  0  0
  8 20  1  0  0  0  0
 10 15  1  0  0  0  0
 10 21  1  0  0  0  0
 11 16  2  0  0  0  0
 11 22  1  0  0  0  0
 12 23  1  0  0  0  0
 13 17  2  0  0  0  0
 13 24  1  0  0  0  0
 14 17  1  0  0  0  0
 14 25  1  0  0  0  0
 15 18  2  0  0  0  0
 15 26  1  0  0  0  0
 16 18  1  0  0  0  0
 16 27  1  0  0  0  0
 17 28  1  0  0  0  0
 18 29  1  0  0  0  0
M  END
>  <Mol_ID>
8327

>  <Formula>
C14H10ClN3S

>  <MolWeight>
287.7673

>  <Cat>
P3223

>  <Name>
WL-149027

>  <Synonyms>
N/A

>  <Target>
Anti inflammatory,calcium channel

>  <Form>
free base

>  <CAS>
23711-34-4

>  <URL>
N/A

$$$$
