Wortmannin (KY 12420)
 OpenBabel08302521353D

 55 59  0  0  0  0  0  0  0  0999 V2000
    0.0269    3.4041    0.9562 C   0  0  0  0  0  0  0  0  0  0  0  0
   -1.1562    4.0936    1.1032 C   0  0  0  0  0  0  0  0  0  0  0  0
   -1.2029    5.4479    1.7906 C   0  0  0  0  0  0  0  0  0  0  0  0
   -0.0201    6.2032    1.4861 C   0  0  0  0  0  0  0  0  0  0  0  0
    1.1263    5.6020    1.0077 C   0  0  0  0  0  0  0  0  0  0  0  0
    1.4278    4.1061    1.0920 C   0  0  2  0  0  0  0  0  0  0  0  0
   -0.1812    1.9675    0.4941 C   0  0  1  0  0  0  0  0  0  0  0  0
   -0.7789    1.9711   -0.9302 C   0  0  0  0  0  0  0  0  0  0  0  0
   -2.1551    2.6644   -0.8568 C   0  0  1  0  0  0  0  0  0  0  0  0
   -1.9794    4.0453   -0.1709 C   0  0  1  0  0  0  0  0  0  0  0  0
   -0.0716    7.5130    1.1216 O   0  0  0  0  0  0  0  0  0  0  0  0
    0.9227    7.6790    0.1853 C   0  0  0  0  0  0  0  0  0  0  0  0
    1.5504    6.4711   -0.0283 C   0  0  0  0  0  0  0  0  0  0  0  0
    2.6386    3.9721    0.0172 C   0  0  2  0  0  0  0  0  0  0  0  0
    2.3806    4.6510   -1.2492 O   0  0  0  0  0  0  0  0  0  0  0  0
    2.2834    6.0237   -1.1895 C   0  0  0  0  0  0  0  0  0  0  0  0
    2.6238    6.7549   -2.1081 O   0  0  0  0  0  0  0  0  0  0  0  0
    3.2034    2.5809   -0.2940 C   0  0  0  0  0  0  0  0  0  0  0  0
    4.2757    2.5288   -1.2433 O   0  0  0  0  0  0  0  0  0  0  0  0
    5.4095    3.3286   -0.9669 C   0  0  0  0  0  0  0  0  0  0  0  0
    1.0021    1.1889    0.6233 O   0  0  0  0  0  0  0  0  0  0  0  0
    0.9008   -0.0016    1.2854 C   0  0  0  0  0  0  0  0  0  0  0  0
    2.2395   -0.6711    1.3459 C   0  0  0  0  0  0  0  0  0  0  0  0
   -0.1189   -0.4586    1.7800 O   0  0  0  0  0  0  0  0  0  0  0  0
   -2.7552    3.2028   -2.1522 C   0  0  0  0  0  0  0  0  0  0  0  0
   -3.4308    4.5594   -1.9368 C   0  0  0  0  0  0  0  0  0  0  0  0
   -3.3054    4.7570   -0.4146 C   0  0  0  0  0  0  0  0  0  0  0  0
   -2.1905    5.8160    2.4091 O   0  0  0  0  0  0  0  0  0  0  0  0
    1.9846    3.7649    2.4964 C   0  0  0  0  0  0  0  0  0  0  0  0
   -2.6984    2.6284   -3.2316 O   0  0  0  0  0  0  0  0  0  0  0  0
   -3.2098    1.7502   -0.2013 C   0  0  0  0  0  0  0  0  0  0  0  0
   -0.9386    1.5466    1.1692 H   0  0  0  0  0  0  0  0  0  0  0  0
   -0.8642    0.9506   -1.3226 H   0  0  0  0  0  0  0  0  0  0  0  0
   -0.1096    2.4968   -1.6244 H   0  0  0  0  0  0  0  0  0  0  0  0
   -1.2941    4.6140   -0.8355 H   0  0  0  0  0  0  0  0  0  0  0  0
    0.9108    8.6274   -0.3275 H   0  0  0  0  0  0  0  0  0  0  0  0
    3.4859    4.5314    0.4455 H   0  0  0  0  0  0  0  0  0  0  0  0
    3.5352    2.0848    0.6239 H   0  0  0  0  0  0  0  0  0  0  0  0
    2.4400    1.9821   -0.7834 H   0  0  0  0  0  0  0  0  0  0  0  0
    6.2678    2.8809   -1.4773 H   0  0  0  0  0  0  0  0  0  0  0  0
    5.6262    3.3785    0.1032 H   0  0  0  0  0  0  0  0  0  0  0  0
    5.2596    4.3308   -1.3775 H   0  0  0  0  0  0  0  0  0  0  0  0
    2.9678   -0.0085    1.8233 H   0  0  0  0  0  0  0  0  0  0  0  0
    2.1645   -1.5810    1.9498 H   0  0  0  0  0  0  0  0  0  0  0  0
    2.5660   -0.9417    0.3403 H   0  0  0  0  0  0  0  0  0  0  0  0
   -2.8424    5.3219   -2.4622 H   0  0  0  0  0  0  0  0  0  0  0  0
   -4.4651    4.5701   -2.2795 H   0  0  0  0  0  0  0  0  0  0  0  0
   -4.1369    4.2796    0.1152 H   0  0  0  0  0  0  0  0  0  0  0  0
   -3.2912    5.8171   -0.1470 H   0  0  0  0  0  0  0  0  0  0  0  0
    3.0803    3.7737    2.5135 H   0  0  0  0  0  0  0  0  0  0  0  0
    1.6584    4.4868    3.2539 H   0  0  0  0  0  0  0  0  0  0  0  0
    1.6727    2.7701    2.8343 H   0  0  0  0  0  0  0  0  0  0  0  0
   -2.8622    0.7121   -0.1448 H   0  0  0  0  0  0  0  0  0  0  0  0
   -4.1462    1.7239   -0.7725 H   0  0  0  0  0  0  0  0  0  0  0  0
   -3.4506    2.0659    0.8184 H   0  0  0  0  0  0  0  0  0  0  0  0
  1  2  2  0  0  0  0
  1  7  1  0  0  0  0
  2  3  1  0  0  0  0
  3  4  1  0  0  0  0
  3 28  2  0  0  0  0
  4  5  2  0  0  0  0
  4 11  1  0  0  0  0
  5  6  1  0  0  0  0
  6  1  1  0  0  0  0
  6 14  1  0  0  0  0
  6 29  1  1  0  0  0
  7  8  1  0  0  0  0
  7 21  1  0  0  0  0
  7 32  1  1  0  0  0
  8  9  1  0  0  0  0
  8 33  1  0  0  0  0
  8 34  1  0  0  0  0
  9 10  1  0  0  0  0
  9 25  1  0  0  0  0
  9 31  1  1  0  0  0
 10  2  1  0  0  0  0
 10 27  1  0  0  0  0
 10 35  1  6  0  0  0
 11 12  1  0  0  0  0
 12 13  2  0  0  0  0
 12 36  1  0  0  0  0
 13  5  1  0  0  0  0
 14 15  1  0  0  0  0
 14 18  1  0  0  0  0
 14 37  1  1  0  0  0
 15 16  1  0  0  0  0
 16 13  1  0  0  0  0
 16 17  2  0  0  0  0
 18 19  1  0  0  0  0
 18 38  1  0  0  0  0
 18 39  1  0  0  0  0
 19 20  1  0  0  0  0
 20 40  1  0  0  0  0
 20 41  1  0  0  0  0
 20 42  1  0  0  0  0
 21 22  1  0  0  0  0
 22 23  1  0  0  0  0
 22 24  2  0  0  0  0
 23 43  1  0  0  0  0
 23 44  1  0  0  0  0
 23 45  1  0  0  0  0
 25 26  1  0  0  0  0
 25 30  2  0  0  0  0
 26 27  1  0  0  0  0
 26 46  1  0  0  0  0
 26 47  1  0  0  0  0
 27 48  1  0  0  0  0
 27 49  1  0  0  0  0
 29 50  1  0  0  0  0
 29 51  1  0  0  0  0
 29 52  1  0  0  0  0
 31 53  1  0  0  0  0
 31 54  1  0  0  0  0
 31 55  1  0  0  0  0
M  END
>  <Mol_ID>
6661

>  <Formula>
C23H24O8

>  <MolWeight>
428.43186

>  <Cat>
S2758

>  <Name>
Wortmannin (KY 12420)

>  <Synonyms>
SL-2052, BRN 0067676, NSC 627609

>  <Target>
ATM/ATR,Autophagy,Autophagy,DNA-PK,PI3K,PLK

>  <Form>
Free base

>  <CAS>
19545-26-7

>  <URL>
http://www.selleckchem.com/products/wortmannin.html

$$$$
