WY-507
 OpenBabel08302521443D

 36 37  0  0  0  0  0  0  0  0999 V2000
    5.2129   -1.9379   -0.5955 C   0  0  0  0  0  0  0  0  0  0  0  0
    5.1350   -0.4483   -0.8238 C   0  0  0  0  0  0  0  0  0  0  0  0
    5.3057   -2.8158   -1.6854 C   0  0  0  0  0  0  0  0  0  0  0  0
    5.2211   -2.4618    0.7032 C   0  0  0  0  0  0  0  0  0  0  0  0
    3.6985    0.0632   -1.0058 C   0  0  0  0  0  0  0  0  0  0  0  0
    5.4271   -4.1896   -1.4781 C   0  0  0  0  0  0  0  0  0  0  0  0
    5.3419   -3.8372    0.9081 C   0  0  0  0  0  0  0  0  0  0  0  0
    3.6114    1.5217   -1.1970 N   0  0  0  0  0  0  0  0  0  0  0  0
    5.4485   -4.7005   -0.1815 C   0  0  0  0  0  0  0  0  0  0  0  0
    4.2731    1.9692   -2.4305 C   0  0  0  0  0  0  0  0  0  0  0  0
    4.1334    3.4865   -2.6163 C   0  0  0  0  0  0  0  0  0  0  0  0
    4.8347    3.9635   -3.8678 C   0  0  0  0  0  0  0  0  0  0  0  0
    4.1544    4.0040   -5.0922 C   0  0  0  0  0  0  0  0  0  0  0  0
    6.1810    4.3534   -3.8259 C   0  0  0  0  0  0  0  0  0  0  0  0
    4.8009    4.4502   -6.2460 C   0  0  0  0  0  0  0  0  0  0  0  0
    6.8259    4.7996   -4.9821 C   0  0  0  0  0  0  0  0  0  0  0  0
    6.1344    4.8524   -6.1901 C   0  0  0  0  0  0  0  0  0  0  0  0
    5.6152    0.0752    0.0127 H   0  0  0  0  0  0  0  0  0  0  0  0
    5.7426   -0.2223   -1.7074 H   0  0  0  0  0  0  0  0  0  0  0  0
    5.3025   -2.4309   -2.7028 H   0  0  0  0  0  0  0  0  0  0  0  0
    5.1501   -1.7994    1.5633 H   0  0  0  0  0  0  0  0  0  0  0  0
    3.2014   -0.4525   -1.8364 H   0  0  0  0  0  0  0  0  0  0  0  0
    3.1198   -0.1830   -0.1047 H   0  0  0  0  0  0  0  0  0  0  0  0
    5.5153   -4.8610   -2.3281 H   0  0  0  0  0  0  0  0  0  0  0  0
    5.3618   -4.2350    1.9196 H   0  0  0  0  0  0  0  0  0  0  0  0
    2.6270    1.7846   -1.2331 H   0  0  0  0  0  0  0  0  0  0  0  0
    5.5523   -5.7691   -0.0199 H   0  0  0  0  0  0  0  0  0  0  0  0
    5.3416    1.7354   -2.3936 H   0  0  0  0  0  0  0  0  0  0  0  0
    3.8452    1.4479   -3.2953 H   0  0  0  0  0  0  0  0  0  0  0  0
    3.0745    3.7718   -2.6630 H   0  0  0  0  0  0  0  0  0  0  0  0
    4.5510    4.0132   -1.7481 H   0  0  0  0  0  0  0  0  0  0  0  0
    3.1143    3.6933   -5.1531 H   0  0  0  0  0  0  0  0  0  0  0  0
    6.7355    4.3163   -2.8907 H   0  0  0  0  0  0  0  0  0  0  0  0
    4.2623    4.4875   -7.1898 H   0  0  0  0  0  0  0  0  0  0  0  0
    7.8672    5.1084   -4.9375 H   0  0  0  0  0  0  0  0  0  0  0  0
    6.6333    5.2081   -7.0881 H   0  0  0  0  0  0  0  0  0  0  0  0
  1  2  1  0  0  0  0
  1  3  2  0  0  0  0
  1  4  1  0  0  0  0
  2  5  1  0  0  0  0
  2 18  1  0  0  0  0
  2 19  1  0  0  0  0
  3  6  1  0  0  0  0
  3 20  1  0  0  0  0
  4  7  2  0  0  0  0
  4 21  1  0  0  0  0
  5  8  1  0  0  0  0
  5 22  1  0  0  0  0
  5 23  1  0  0  0  0
  6  9  2  0  0  0  0
  6 24  1  0  0  0  0
  7  9  1  0  0  0  0
  7 25  1  0  0  0  0
  8 10  1  0  0  0  0
  8 26  1  0  0  0  0
  9 27  1  0  0  0  0
 10 11  1  0  0  0  0
 10 28  1  0  0  0  0
 10 29  1  0  0  0  0
 11 12  1  0  0  0  0
 11 30  1  0  0  0  0
 11 31  1  0  0  0  0
 12 13  2  0  0  0  0
 12 14  1  0  0  0  0
 13 15  1  0  0  0  0
 13 32  1  0  0  0  0
 14 16  2  0  0  0  0
 14 33  1  0  0  0  0
 15 17  2  0  0  0  0
 15 34  1  0  0  0  0
 16 17  1  0  0  0  0
 16 35  1  0  0  0  0
 17 36  1  0  0  0  0
M  END
>  <Mol_ID>
9146

>  <Formula>
C16H19N

>  <MolWeight>
225.32876

>  <Cat>
P3227

>  <Name>
WY-507

>  <Synonyms>
N/A

>  <Target>
Others

>  <Form>
free base

>  <CAS>
924069-79-4

>  <URL>
N/A

$$$$
