WY 14643.cdx
 OpenBabel08302520413D

 35 36  0  0  0  0  0  0  0  0999 V2000
    1.0985   -0.7495   -0.3132 C   0  0  0  0  0  0  0  0  0  0  0  0
    2.3028   -1.4602   -0.1992 N   0  0  0  0  0  0  0  0  0  0  0  0
   -0.0187   -1.3196    0.1679 N   0  0  0  0  0  0  0  0  0  0  0  0
    1.0727    0.4735   -0.9577 C   0  0  0  0  0  0  0  0  0  0  0  0
    3.6002   -0.9660    0.0808 C   0  0  0  0  0  0  0  0  0  0  0  0
   -1.1590   -0.6260    0.0263 C   0  0  0  0  0  0  0  0  0  0  0  0
   -0.1521    1.0745   -1.0963 C   0  0  0  0  0  0  0  0  0  0  0  0
    4.7417   -1.6697   -0.3741 C   0  0  0  0  0  0  0  0  0  0  0  0
    3.7692    0.2389    0.7865 C   0  0  0  0  0  0  0  0  0  0  0  0
   -1.2849    0.5508   -0.6063 N   0  0  0  0  0  0  0  0  0  0  0  0
   -2.6249   -1.2979    0.7616 S   0  0  0  0  0  0  0  0  0  0  0  0
    6.0278   -1.1162   -0.1522 C   0  0  0  0  0  0  0  0  0  0  0  0
    4.6078   -2.9816   -1.1042 C   0  0  0  0  0  0  0  0  0  0  0  0
    5.0376    0.7833    0.9946 C   0  0  0  0  0  0  0  0  0  0  0  0
   -3.5597   -1.5507   -0.7749 C   0  0  0  0  0  0  0  0  0  0  0  0
    6.1544    0.1109    0.5155 C   0  0  0  0  0  0  0  0  0  0  0  0
    7.3013   -1.7666   -0.6287 C   0  0  0  0  0  0  0  0  0  0  0  0
   -4.9222   -2.1535   -0.5217 C   0  0  0  0  0  0  0  0  0  0  0  0
   -5.4581   -1.8904    0.6938 O   0  0  0  0  0  0  0  0  0  0  0  0
   -5.5456   -2.7720   -1.3743 O   0  0  0  0  0  0  0  0  0  0  0  0
    2.1387   -2.3961    0.1566 H   0  0  0  0  0  0  0  0  0  0  0  0
    1.9676    0.9181   -1.3731 H   0  0  0  0  0  0  0  0  0  0  0  0
   -0.2545    2.0152   -1.6282 H   0  0  0  0  0  0  0  0  0  0  0  0
    2.9150    0.7769    1.1828 H   0  0  0  0  0  0  0  0  0  0  0  0
    5.0952   -2.9195   -2.0819 H   0  0  0  0  0  0  0  0  0  0  0  0
    5.0639   -3.7834   -0.5132 H   0  0  0  0  0  0  0  0  0  0  0  0
    3.5706   -3.2698   -1.2935 H   0  0  0  0  0  0  0  0  0  0  0  0
    5.1547    1.7236    1.5210 H   0  0  0  0  0  0  0  0  0  0  0  0
   -3.7079   -0.6000   -1.2965 H   0  0  0  0  0  0  0  0  0  0  0  0
   -2.9969   -2.2403   -1.4108 H   0  0  0  0  0  0  0  0  0  0  0  0
    7.1408    0.5527    0.6625 H   0  0  0  0  0  0  0  0  0  0  0  0
    7.7963   -1.1218   -1.3639 H   0  0  0  0  0  0  0  0  0  0  0  0
    7.9748   -1.9207    0.2210 H   0  0  0  0  0  0  0  0  0  0  0  0
    7.1445   -2.7404   -1.0967 H   0  0  0  0  0  0  0  0  0  0  0  0
   -4.8263   -1.4066    1.2666 H   0  0  0  0  0  0  0  0  0  0  0  0
  1  2  1  0  0  0  0
  1  3  2  0  0  0  0
  1  4  1  0  0  0  0
  2  5  1  0  0  0  0
  2 21  1  0  0  0  0
  3  6  1  0  0  0  0
  4  7  2  0  0  0  0
  4 22  1  0  0  0  0
  5  8  2  0  0  0  0
  5  9  1  0  0  0  0
  6 10  2  0  0  0  0
  6 11  1  0  0  0  0
  7 10  1  0  0  0  0
  7 23  1  0  0  0  0
  8 12  1  0  0  0  0
  8 13  1  0  0  0  0
  9 14  2  0  0  0  0
  9 24  1  0  0  0  0
 11 15  1  0  0  0  0
 12 16  2  0  0  0  0
 12 17  1  0  0  0  0
 13 25  1  0  0  0  0
 13 26  1  0  0  0  0
 13 27  1  0  0  0  0
 14 16  1  0  0  0  0
 14 28  1  0  0  0  0
 15 18  1  0  0  0  0
 15 29  1  0  0  0  0
 15 30  1  0  0  0  0
 16 31  1  0  0  0  0
 17 32  1  0  0  0  0
 17 33  1  0  0  0  0
 17 34  1  0  0  0  0
 18 19  1  0  0  0  0
 18 20  2  0  0  0  0
 19 35  1  0  0  0  0
M  END
>  <Mol_ID>
3880

>  <Formula>
C14H14ClN3O2S

>  <MolWeight>
323.79786

>  <Cat>
S8029

>  <Name>
WY-14643 (Pirinixic Acid)

>  <Synonyms>
NSC 310038

>  <Target>
PPAR

>  <Form>
free base

>  <CAS>
50892-23-4

>  <URL>
http://selleckchem.com/products/wy-14643-pirinixic-acid.html

$$$$
