WYE-175839
 OpenBabel08302521443D

 29 30  0  0  0  0  0  0  0  0999 V2000
    1.1703   -0.2717    0.0935 S   0  0  0  0  0  0  0  0  0  0  0  0
    0.3148   -1.6801   -0.2718 N   0  0  0  0  0  0  0  0  0  0  0  0
   -0.6083   -1.6675   -1.3691 C   0  0  0  0  0  0  0  0  0  0  0  0
    0.2457    0.3164    1.4997 C   0  0  0  0  0  0  0  0  0  0  0  0
    1.0514    0.6997   -0.9710 O   0  0  0  0  0  0  0  0  0  0  0  0
    2.4599   -0.7047    0.5884 O   0  0  0  0  0  0  0  0  0  0  0  0
   -1.9913   -1.5138   -1.1451 C   0  0  0  0  0  0  0  0  0  0  0  0
    0.5564   -0.1599    2.7798 C   0  0  0  0  0  0  0  0  0  0  0  0
   -0.8064    1.2191    1.3070 C   0  0  0  0  0  0  0  0  0  0  0  0
   -2.5357   -1.4968    0.1517 N   0  0  0  0  0  0  0  0  0  0  0  0
   -1.3001    1.0952    3.6617 C   0  0  0  0  0  0  0  0  0  0  0  0
   -1.5901    1.5982    2.3959 C   0  0  0  0  0  0  0  0  0  0  0  0
   -0.2266    0.2331    3.8663 C   0  0  0  0  0  0  0  0  0  0  0  0
   -2.0740    1.4394    4.6990 F   0  0  0  0  0  0  0  0  0  0  0  0
   -0.1142   -1.8526   -2.6650 C   0  0  0  0  0  0  0  0  0  0  0  0
   -2.8607   -1.6541   -2.2347 C   0  0  0  0  0  0  0  0  0  0  0  0
   -0.9958   -1.9544   -3.7412 C   0  0  0  0  0  0  0  0  0  0  0  0
   -2.3689   -1.8667   -3.5247 C   0  0  0  0  0  0  0  0  0  0  0  0
    0.9362   -2.4878   -0.2505 H   0  0  0  0  0  0  0  0  0  0  0  0
    1.3909   -0.8414    2.9364 H   0  0  0  0  0  0  0  0  0  0  0  0
   -1.0353    1.5991    0.3121 H   0  0  0  0  0  0  0  0  0  0  0  0
   -3.4429   -1.0466    0.2132 H   0  0  0  0  0  0  0  0  0  0  0  0
   -1.8827   -1.1720    0.8556 H   0  0  0  0  0  0  0  0  0  0  0  0
   -2.4310    2.2729    2.2670 H   0  0  0  0  0  0  0  0  0  0  0  0
   -0.0163   -0.1355    4.8660 H   0  0  0  0  0  0  0  0  0  0  0  0
    0.9537   -1.9420   -2.8429 H   0  0  0  0  0  0  0  0  0  0  0  0
   -3.9371   -1.6287   -2.0804 H   0  0  0  0  0  0  0  0  0  0  0  0
   -0.6139   -2.1277   -4.7442 H   0  0  0  0  0  0  0  0  0  0  0  0
   -3.0605   -1.9854   -4.3553 H   0  0  0  0  0  0  0  0  0  0  0  0
  2  1  1  0  0  0  0
  2 19  1  0  0  0  0
  3  2  1  0  0  0  0
  4  1  1  0  0  0  0
  5  1  2  0  0  0  0
  6  1  2  0  0  0  0
  7  3  2  0  0  0  0
  8  4  2  0  0  0  0
  8 20  1  0  0  0  0
  9  4  1  0  0  0  0
  9 21  1  0  0  0  0
 10  7  1  0  0  0  0
 10 22  1  0  0  0  0
 10 23  1  0  0  0  0
 11 12  1  0  0  0  0
 11 13  2  0  0  0  0
 12  9  2  0  0  0  0
 12 24  1  0  0  0  0
 13  8  1  0  0  0  0
 13 25  1  0  0  0  0
 14 11  1  0  0  0  0
 15  3  1  0  0  0  0
 15 26  1  0  0  0  0
 16  7  1  0  0  0  0
 16 27  1  0  0  0  0
 17 15  2  0  0  0  0
 17 18  1  0  0  0  0
 17 28  1  0  0  0  0
 18 16  2  0  0  0  0
 18 29  1  0  0  0  0
M  END
>  <Mol_ID>
9164

>  <Formula>
C12H11FN2O2S

>  <MolWeight>
266.2913432

>  <Cat>
P3235

>  <Name>
WYE-175839

>  <Synonyms>
N/A

>  <Target>
serine racemase,tubulin polymerization

>  <Form>
free base

>  <CAS>
216700-84-4

>  <URL>
N/A

$$$$
