WYE-175761
 OpenBabel08302521443D

 32 33  0  0  0  0  0  0  0  0999 V2000
    0.9463   -0.0295   -0.1114 S   0  0  0  0  0  0  0  0  0  0  0  0
   -5.0784   -2.6442   -1.4810 N   0  3  0  0  0  0  0  0  0  0  0  0
    0.4297   -1.4102   -0.9233 N   0  0  0  0  0  0  0  0  0  0  0  0
    0.3518   -0.2694    1.5512 C   0  0  0  0  0  0  0  0  0  0  0  0
    1.5089   -1.7733    4.8443 C   0  0  0  0  0  0  0  0  0  0  0  0
   -3.6596   -2.2971   -1.3215 C   0  0  0  0  0  0  0  0  0  0  0  0
    0.2736    1.1258   -0.6637 O   0  0  0  0  0  0  0  0  0  0  0  0
    2.3909   -0.1091   -0.0631 O   0  0  0  0  0  0  0  0  0  0  0  0
    0.7127   -1.0712    3.8060 C   0  0  0  0  0  0  0  0  0  0  0  0
    1.1457   -0.9586    2.4781 C   0  0  0  0  0  0  0  0  0  0  0  0
   -5.6987   -2.1218   -2.4172 O   0  5  0  0  0  0  0  0  0  0  0  0
   -5.5684   -3.4432   -0.6702 O   0  0  0  0  0  0  0  0  0  0  0  0
    1.2051   -1.8917    6.0167 O   0  0  0  0  0  0  0  0  0  0  0  0
   -0.9527   -1.6920   -1.0460 C   0  0  0  0  0  0  0  0  0  0  0  0
   -3.0591   -1.3866   -2.2017 C   0  0  0  0  0  0  0  0  0  0  0  0
   -2.9131   -2.8902   -0.2932 C   0  0  0  0  0  0  0  0  0  0  0  0
    2.6481   -2.2964    4.3596 O   0  0  0  0  0  0  0  0  0  0  0  0
   -1.7030   -1.0774   -2.0511 C   0  0  0  0  0  0  0  0  0  0  0  0
   -1.5551   -2.5879   -0.1625 C   0  0  0  0  0  0  0  0  0  0  0  0
   -0.8568    0.3160    1.9415 C   0  0  0  0  0  0  0  0  0  0  0  0
   -0.5046   -0.4926    4.1921 C   0  0  0  0  0  0  0  0  0  0  0  0
   -1.2875    0.1980    3.2624 C   0  0  0  0  0  0  0  0  0  0  0  0
    1.0833   -2.1884   -0.8533 H   0  0  0  0  0  0  0  0  0  0  0  0
    2.1004   -1.3831    2.1744 H   0  0  0  0  0  0  0  0  0  0  0  0
   -3.6242   -0.9197   -3.0067 H   0  0  0  0  0  0  0  0  0  0  0  0
   -3.3684   -3.5914    0.4036 H   0  0  0  0  0  0  0  0  0  0  0  0
    3.0778   -2.6983    5.1448 H   0  0  0  0  0  0  0  0  0  0  0  0
   -1.2322   -0.3749   -2.7370 H   0  0  0  0  0  0  0  0  0  0  0  0
   -0.9793   -3.0571    0.6308 H   0  0  0  0  0  0  0  0  0  0  0  0
   -1.4594    0.8758    1.2284 H   0  0  0  0  0  0  0  0  0  0  0  0
   -0.8398   -0.5628    5.2263 H   0  0  0  0  0  0  0  0  0  0  0  0
   -2.2201    0.6582    3.5766 H   0  0  0  0  0  0  0  0  0  0  0  0
  2  6  1  0  0  0  0
  3  1  1  0  0  0  0
  3 23  1  0  0  0  0
  4  1  1  0  0  0  0
  5  9  1  0  0  0  0
  6 15  2  0  0  0  0
  6 16  1  0  0  0  0
  7  1  2  0  0  0  0
  8  1  2  0  0  0  0
  9 10  2  0  0  0  0
 10  4  1  0  0  0  0
 10 24  1  0  0  0  0
 11  2  1  0  0  0  0
 12  2  2  0  0  0  0
 13  5  2  0  0  0  0
 14  3  1  0  0  0  0
 15 18  1  0  0  0  0
 15 25  1  0  0  0  0
 16 19  2  0  0  0  0
 16 26  1  0  0  0  0
 17  5  1  0  0  0  0
 17 27  1  0  0  0  0
 18 14  2  0  0  0  0
 18 28  1  0  0  0  0
 19 14  1  0  0  0  0
 19 29  1  0  0  0  0
 20  4  2  0  0  0  0
 20 30  1  0  0  0  0
 21  9  1  0  0  0  0
 21 31  1  0  0  0  0
 22 20  1  0  0  0  0
 22 21  2  0  0  0  0
 22 32  1  0  0  0  0
M  CHG  2   2   1  11  -1
M  END
>  <Mol_ID>
9148

>  <Formula>
C13H10N2O6S

>  <MolWeight>
322.2933

>  <Cat>
P3229

>  <Name>
WYE-175761

>  <Synonyms>
N/A

>  <Target>
CTP

>  <Form>
free base

>  <CAS>
92966-73-9

>  <URL>
N/A

$$$$
