WYE-176234
 OpenBabel08302521443D

 39 40  0  0  0  0  0  0  0  0999 V2000
    5.2638    3.8093   -1.4082 C   0  0  0  0  0  0  0  0  0  0  0  0
    5.7231    4.0913   -2.7091 C   0  0  0  0  0  0  0  0  0  0  0  0
    3.9087    3.2071   -1.2229 C   0  0  0  0  0  0  0  0  0  0  0  0
    6.1124    4.0843   -0.3258 C   0  0  0  0  0  0  0  0  0  0  0  0
    6.9837    4.6456   -2.9221 C   0  0  0  0  0  0  0  0  0  0  0  0
    4.9892    3.8366   -3.8393 O   0  0  0  0  0  0  0  0  0  0  0  0
    3.4437    2.7375    0.1485 C   0  0  0  0  0  0  0  0  0  0  0  0
    3.2112    3.0157   -2.2246 O   0  0  0  0  0  0  0  0  0  0  0  0
    7.3790    4.6426   -0.5391 C   0  0  0  0  0  0  0  0  0  0  0  0
    7.8021    4.9210   -1.8352 C   0  0  0  0  0  0  0  0  0  0  0  0
    3.3714    3.7697    1.1199 O   0  0  0  0  0  0  0  0  0  0  0  0
    9.0256    5.4658   -2.0842 O   0  0  0  0  0  0  0  0  0  0  0  0
    2.9539    3.3821    2.3689 C   0  0  0  0  0  0  0  0  0  0  0  0
    2.5638    2.0922    2.7307 C   0  0  0  0  0  0  0  0  0  0  0  0
    2.9330    4.3884    3.3361 C   0  0  0  0  0  0  0  0  0  0  0  0
    2.1791    1.8090    4.0451 C   0  0  0  0  0  0  0  0  0  0  0  0
    2.5455    4.1068    4.6529 C   0  0  0  0  0  0  0  0  0  0  0  0
    2.1733    2.8075    5.0261 C   0  0  0  0  0  0  0  0  0  0  0  0
    1.7732    2.4520    6.4472 C   0  0  0  0  0  0  0  0  0  0  0  0
    2.9039    2.7300    7.4393 C   0  0  0  0  0  0  0  0  0  0  0  0
    0.4825    3.1572    6.8683 C   0  0  0  0  0  0  0  0  0  0  0  0
    5.8162    3.8803    0.6990 H   0  0  0  0  0  0  0  0  0  0  0  0
    7.3227    4.8586   -3.9317 H   0  0  0  0  0  0  0  0  0  0  0  0
    4.1213    3.4649   -3.5628 H   0  0  0  0  0  0  0  0  0  0  0  0
    2.4417    2.3147   -0.0014 H   0  0  0  0  0  0  0  0  0  0  0  0
    4.1263    1.9394    0.4667 H   0  0  0  0  0  0  0  0  0  0  0  0
    8.0170    4.8555    0.3135 H   0  0  0  0  0  0  0  0  0  0  0  0
    9.4812    5.6205   -1.2407 H   0  0  0  0  0  0  0  0  0  0  0  0
    2.5418    1.2722    2.0210 H   0  0  0  0  0  0  0  0  0  0  0  0
    3.2209    5.4028    3.0698 H   0  0  0  0  0  0  0  0  0  0  0  0
    1.8824    0.7922    4.2946 H   0  0  0  0  0  0  0  0  0  0  0  0
    2.5414    4.9132    5.3835 H   0  0  0  0  0  0  0  0  0  0  0  0
    1.5740    1.3720    6.4907 H   0  0  0  0  0  0  0  0  0  0  0  0
    3.1367    3.7981    7.5075 H   0  0  0  0  0  0  0  0  0  0  0  0
    2.6304    2.3839    8.4419 H   0  0  0  0  0  0  0  0  0  0  0  0
    3.8197    2.2061    7.1433 H   0  0  0  0  0  0  0  0  0  0  0  0
   -0.3317    2.9336    6.1698 H   0  0  0  0  0  0  0  0  0  0  0  0
    0.1698    2.8223    7.8633 H   0  0  0  0  0  0  0  0  0  0  0  0
    0.6047    4.2446    6.9038 H   0  0  0  0  0  0  0  0  0  0  0  0
  1  2  2  0  0  0  0
  1  3  1  0  0  0  0
  1  4  1  0  0  0  0
  2  5  1  0  0  0  0
  2  6  1  0  0  0  0
  3  7  1  0  0  0  0
  3  8  2  0  0  0  0
  4  9  2  0  0  0  0
  4 22  1  0  0  0  0
  5 10  2  0  0  0  0
  5 23  1  0  0  0  0
  6 24  1  0  0  0  0
  7 11  1  0  0  0  0
  7 25  1  0  0  0  0
  7 26  1  0  0  0  0
  9 10  1  0  0  0  0
  9 27  1  0  0  0  0
 10 12  1  0  0  0  0
 11 13  1  0  0  0  0
 12 28  1  0  0  0  0
 13 14  2  0  0  0  0
 13 15  1  0  0  0  0
 14 16  1  0  0  0  0
 14 29  1  0  0  0  0
 15 17  2  0  0  0  0
 15 30  1  0  0  0  0
 16 18  2  0  0  0  0
 16 31  1  0  0  0  0
 17 18  1  0  0  0  0
 17 32  1  0  0  0  0
 18 19  1  0  0  0  0
 19 20  1  0  0  0  0
 19 21  1  0  0  0  0
 19 33  1  0  0  0  0
 20 34  1  0  0  0  0
 20 35  1  0  0  0  0
 20 36  1  0  0  0  0
 21 37  1  0  0  0  0
 21 38  1  0  0  0  0
 21 39  1  0  0  0  0
M  END
>  <Mol_ID>
9170

>  <Formula>
C17H18O4

>  <MolWeight>
286.32242

>  <Cat>
P3242

>  <Name>
WYE-176234

>  <Synonyms>
N/A

>  <Target>
Anti-infection

>  <Form>
free base

>  <CAS>
201284-86-8

>  <URL>
N/A

$$$$
