WYE-176204-A
 OpenBabel08302521443D

 26 27  0  0  0  0  0  0  0  0999 V2000
    2.3856   -0.0145   -0.0608 C   0  0  0  0  0  0  0  0  0  0  0  0
    1.5670   -1.1600   -0.1501 N   0  0  0  0  0  0  0  0  0  0  0  0
    1.5358    1.0983   -0.0578 N   0  0  0  0  0  0  0  0  0  0  0  0
    0.2190   -0.7585   -0.0439 C   0  0  0  0  0  0  0  0  0  0  0  0
    0.2069    0.6569   -0.0196 C   0  0  0  0  0  0  0  0  0  0  0  0
    3.6753   -0.0313    0.0265 N   0  0  0  0  0  0  0  0  0  0  0  0
    2.0260   -2.3961    0.3058 N   0  0  0  0  0  0  0  0  0  0  0  0
    1.9217    2.4954   -0.1076 C   0  0  0  0  0  0  0  0  0  0  0  0
   -0.9359   -1.5099    0.0119 C   0  0  0  0  0  0  0  0  0  0  0  0
   -0.9886    1.3400    0.0505 C   0  0  0  0  0  0  0  0  0  0  0  0
    3.3039    2.4195    1.9019 O   0  0  0  0  0  0  0  0  0  0  0  0
    2.1858    3.0577    1.2901 C   0  0  0  0  0  0  0  0  0  0  0  0
   -2.1475   -0.8189    0.0730 C   0  0  0  0  0  0  0  0  0  0  0  0
   -2.1726    0.5898    0.0903 C   0  0  0  0  0  0  0  0  0  0  0  0
    4.0254    0.9281    0.0987 H   0  0  0  0  0  0  0  0  0  0  0  0
    1.7135   -3.1166   -0.3422 H   0  0  0  0  0  0  0  0  0  0  0  0
    3.0482   -2.3757    0.2144 H   0  0  0  0  0  0  0  0  0  0  0  0
    2.8322    2.5913   -0.7106 H   0  0  0  0  0  0  0  0  0  0  0  0
    1.1559    3.0971   -0.6095 H   0  0  0  0  0  0  0  0  0  0  0  0
   -0.9031   -2.5920   -0.0017 H   0  0  0  0  0  0  0  0  0  0  0  0
   -1.0327    2.4219    0.0785 H   0  0  0  0  0  0  0  0  0  0  0  0
    3.0613    1.4810    2.0284 H   0  0  0  0  0  0  0  0  0  0  0  0
    2.4246    4.1252    1.2143 H   0  0  0  0  0  0  0  0  0  0  0  0
    1.3169    2.9523    1.9463 H   0  0  0  0  0  0  0  0  0  0  0  0
   -3.0816   -1.3747    0.1058 H   0  0  0  0  0  0  0  0  0  0  0  0
   -3.1322    1.1009    0.1383 H   0  0  0  0  0  0  0  0  0  0  0  0
  2  1  1  0  0  0  0
  3  1  1  0  0  0  0
  4  2  1  0  0  0  0
  4  5  2  0  0  0  0
  5  3  1  0  0  0  0
  6  1  2  0  0  0  0
  6 15  1  0  0  0  0
  7  2  1  0  0  0  0
  7 16  1  0  0  0  0
  7 17  1  0  0  0  0
  8  3  1  0  0  0  0
  8 18  1  0  0  0  0
  8 19  1  0  0  0  0
  9  4  1  0  0  0  0
  9 20  1  0  0  0  0
 10  5  1  0  0  0  0
 10 21  1  0  0  0  0
 11 12  1  0  0  0  0
 11 22  1  0  0  0  0
 12  8  1  0  0  0  0
 12 23  1  0  0  0  0
 12 24  1  0  0  0  0
 13  9  2  0  0  0  0
 13 14  1  0  0  0  0
 13 25  1  0  0  0  0
 14 10  2  0  0  0  0
 14 26  1  0  0  0  0
M  END
>  <Mol_ID>
9169

>  <Formula>
C9H12N4O

>  <MolWeight>
192.21778

>  <Cat>
P3241

>  <Name>
WYE-176204-A

>  <Synonyms>
N/A

>  <Target>
IDO

>  <Form>
free base

>  <CAS>
471917-75-6

>  <URL>
N/A

$$$$
