WYE-176041
 OpenBabel08302521443D

 40 42  0  0  0  0  0  0  0  0999 V2000
   -2.3102   -0.3365    0.0757 C   0  0  0  0  0  0  0  0  0  0  0  0
   -1.4043    0.8421    0.1524 C   0  0  0  0  0  0  0  0  0  0  0  0
    0.0437    0.5594    0.0918 C   0  0  0  0  0  0  0  0  0  0  0  0
    0.4766   -0.7657    0.0610 C   0  0  0  0  0  0  0  0  0  0  0  0
   -1.7346   -1.5501    0.1111 C   0  0  0  0  0  0  0  0  0  0  0  0
   -0.3902   -1.8271    0.1180 O   0  0  0  0  0  0  0  0  0  0  0  0
   -6.9340   -3.6509   -2.9733 C   0  0  0  0  0  0  0  0  0  0  0  0
   -3.6808   -0.1037    0.0248 O   0  0  0  0  0  0  0  0  0  0  0  0
    1.8398   -1.0600   -0.0146 C   0  0  0  0  0  0  0  0  0  0  0  0
    0.9776    1.6005    0.0645 C   0  0  0  0  0  0  0  0  0  0  0  0
    5.1124    0.3874   -0.6765 C   0  0  0  0  0  0  0  0  0  0  0  0
   -6.1348   -2.6766   -2.1819 C   0  0  0  0  0  0  0  0  0  0  0  0
   -1.8254    1.9893    0.2484 O   0  0  0  0  0  0  0  0  0  0  0  0
    2.7678   -0.0175   -0.0563 C   0  0  0  0  0  0  0  0  0  0  0  0
    4.1288   -0.3992   -0.0712 O   0  0  0  0  0  0  0  0  0  0  0  0
   -6.5255   -4.1685   -4.0020 O   0  0  0  0  0  0  0  0  0  0  0  0
    4.9395    1.4263   -1.2963 O   0  0  0  0  0  0  0  0  0  0  0  0
   -4.8655   -2.3394   -2.6706 C   0  0  0  0  0  0  0  0  0  0  0  0
   -6.5858   -2.0979   -0.9874 C   0  0  0  0  0  0  0  0  0  0  0  0
   -4.4697   -0.9335   -0.7441 C   0  0  0  0  0  0  0  0  0  0  0  0
    2.3425    1.3116    0.0033 C   0  0  0  0  0  0  0  0  0  0  0  0
   -8.1377   -3.8852   -2.3953 O   0  0  0  0  0  0  0  0  0  0  0  0
   -5.7539   -1.2236   -0.2713 C   0  0  0  0  0  0  0  0  0  0  0  0
   -4.0498   -1.4531   -1.9696 C   0  0  0  0  0  0  0  0  0  0  0  0
    6.4527   -0.2529   -0.4658 C   0  0  0  0  0  0  0  0  0  0  0  0
   -8.9352   -4.8295   -3.1138 C   0  0  0  0  0  0  0  0  0  0  0  0
   -2.2944   -2.4777    0.1052 H   0  0  0  0  0  0  0  0  0  0  0  0
    2.1728   -2.0942   -0.0375 H   0  0  0  0  0  0  0  0  0  0  0  0
    0.6467    2.6372    0.0948 H   0  0  0  0  0  0  0  0  0  0  0  0
   -4.5022   -2.7706   -3.6033 H   0  0  0  0  0  0  0  0  0  0  0  0
   -7.5768   -2.3204   -0.5994 H   0  0  0  0  0  0  0  0  0  0  0  0
    3.0538    2.1338    0.0034 H   0  0  0  0  0  0  0  0  0  0  0  0
   -6.1064   -0.7812    0.6575 H   0  0  0  0  0  0  0  0  0  0  0  0
   -3.0823   -1.1900   -2.3873 H   0  0  0  0  0  0  0  0  0  0  0  0
    6.6688   -0.3280    0.6032 H   0  0  0  0  0  0  0  0  0  0  0  0
    6.4747   -1.2382   -0.9377 H   0  0  0  0  0  0  0  0  0  0  0  0
    7.2243    0.3713   -0.9292 H   0  0  0  0  0  0  0  0  0  0  0  0
   -9.1371   -4.4704   -4.1281 H   0  0  0  0  0  0  0  0  0  0  0  0
   -8.4402   -5.8055   -3.1413 H   0  0  0  0  0  0  0  0  0  0  0  0
   -9.8886   -4.9396   -2.5897 H   0  0  0  0  0  0  0  0  0  0  0  0
  2  1  1  0  0  0  0
  3  2  1  0  0  0  0
  4  3  2  0  0  0  0
  4  6  1  0  0  0  0
  5  1  2  0  0  0  0
  5 27  1  0  0  0  0
  6  5  1  0  0  0  0
  7 12  1  0  0  0  0
  8  1  1  0  0  0  0
  9  4  1  0  0  0  0
  9 28  1  0  0  0  0
 10  3  1  0  0  0  0
 10 29  1  0  0  0  0
 11 15  1  0  0  0  0
 12 19  2  0  0  0  0
 13  2  2  0  0  0  0
 14  9  2  0  0  0  0
 15 14  1  0  0  0  0
 16  7  2  0  0  0  0
 17 11  2  0  0  0  0
 18 24  2  0  0  0  0
 18 12  1  0  0  0  0
 18 30  1  0  0  0  0
 19 23  1  0  0  0  0
 19 31  1  0  0  0  0
 20  8  1  0  0  0  0
 21 10  2  0  0  0  0
 21 14  1  0  0  0  0
 21 32  1  0  0  0  0
 22  7  1  0  0  0  0
 23 20  2  0  0  0  0
 23 33  1  0  0  0  0
 24 20  1  0  0  0  0
 24 34  1  0  0  0  0
 25 11  1  0  0  0  0
 25 35  1  0  0  0  0
 25 36  1  0  0  0  0
 25 37  1  0  0  0  0
 26 22  1  0  0  0  0
 26 38  1  0  0  0  0
 26 39  1  0  0  0  0
 26 40  1  0  0  0  0
M  END
>  <Mol_ID>
9165

>  <Formula>
C19H14O7

>  <MolWeight>
354.31026

>  <Cat>
P3236

>  <Name>
WYE-176041

>  <Synonyms>
N/A

>  <Target>
Others

>  <Form>
free base

>  <CAS>
137988-21-7

>  <URL>
N/A

$$$$
