WYE-176270
 OpenBabel08302521443D

 39 40  0  0  0  0  0  0  0  0999 V2000
   -3.5230   -3.4025   -2.8926 C   0  0  0  0  0  0  0  0  0  0  0  0
   -2.6349   -3.8708   -1.9573 O   0  0  0  0  0  0  0  0  0  0  0  0
   -3.9628   -4.2886   -3.9344 C   0  0  0  0  0  0  0  0  0  0  0  0
   -3.8602   -2.0970   -2.5820 C   0  0  0  0  0  0  0  0  0  0  0  0
   -2.4618   -2.8908   -1.0171 C   0  0  0  0  0  0  0  0  0  0  0  0
   -3.1720   -1.7671   -1.3889 C   0  0  0  0  0  0  0  0  0  0  0  0
   -0.6270   -1.3094    3.0110 C   0  0  0  0  0  0  0  0  0  0  0  0
   -1.2052   -2.4127    2.3685 C   0  0  0  0  0  0  0  0  0  0  0  0
   -1.8421   -2.2412    1.1658 O   0  0  0  0  0  0  0  0  0  0  0  0
   -3.5338   -5.3931   -4.2368 O   0  0  0  0  0  0  0  0  0  0  0  0
   -0.0315   -1.4803    4.2712 C   0  0  0  0  0  0  0  0  0  0  0  0
   -1.2300   -3.6414    3.0478 C   0  0  0  0  0  0  0  0  0  0  0  0
   -1.6362   -3.2579    0.1760 C   0  0  0  0  0  0  0  0  0  0  0  0
   -5.0315   -3.7792   -4.6014 O   0  0  0  0  0  0  0  0  0  0  0  0
   -0.0125   -2.7130    4.9385 C   0  0  0  0  0  0  0  0  0  0  0  0
   -0.6479   -3.7895    4.3207 C   0  0  0  0  0  0  0  0  0  0  0  0
   -0.5501   -0.0050    2.6026 O   0  0  0  0  0  0  0  0  0  0  0  0
    0.5986   -2.7486    6.3216 C   0  0  0  0  0  0  0  0  0  0  0  0
   -1.0691    0.3521    1.3359 C   0  0  0  0  0  0  0  0  0  0  0  0
    1.2181   -4.0671    6.7905 C   0  0  0  0  0  0  0  0  0  0  0  0
    1.8986   -3.8826    8.1442 C   0  0  0  0  0  0  0  0  0  0  0  0
   -4.5496   -1.4764   -3.1381 H   0  0  0  0  0  0  0  0  0  0  0  0
   -3.2302   -0.8402   -0.8370 H   0  0  0  0  0  0  0  0  0  0  0  0
    0.4143   -0.6092    4.7501 H   0  0  0  0  0  0  0  0  0  0  0  0
   -1.7499   -4.5001    2.6303 H   0  0  0  0  0  0  0  0  0  0  0  0
   -1.9818   -4.2340    0.5297 H   0  0  0  0  0  0  0  0  0  0  0  0
   -0.5770   -3.3119   -0.1000 H   0  0  0  0  0  0  0  0  0  0  0  0
   -5.2695   -4.5004   -5.2171 H   0  0  0  0  0  0  0  0  0  0  0  0
   -0.7290   -4.7511    4.8234 H   0  0  0  0  0  0  0  0  0  0  0  0
    1.3918   -1.9886    6.3571 H   0  0  0  0  0  0  0  0  0  0  0  0
   -0.1706   -2.4336    7.0372 H   0  0  0  0  0  0  0  0  0  0  0  0
   -0.5393   -0.1691    0.5340 H   0  0  0  0  0  0  0  0  0  0  0  0
   -2.1508    0.1973    1.2902 H   0  0  0  0  0  0  0  0  0  0  0  0
   -0.8911    1.4240    1.2033 H   0  0  0  0  0  0  0  0  0  0  0  0
    0.4499   -4.8428    6.8823 H   0  0  0  0  0  0  0  0  0  0  0  0
    1.9568   -4.4211    6.0627 H   0  0  0  0  0  0  0  0  0  0  0  0
    2.7040   -3.1426    8.0816 H   0  0  0  0  0  0  0  0  0  0  0  0
    1.1835   -3.5407    8.9001 H   0  0  0  0  0  0  0  0  0  0  0  0
    2.3333   -4.8254    8.4896 H   0  0  0  0  0  0  0  0  0  0  0  0
  2  1  1  0  0  0  0
  3  1  1  0  0  0  0
  4  1  2  0  0  0  0
  4 22  1  0  0  0  0
  5  2  1  0  0  0  0
  6  4  1  0  0  0  0
  6  5  2  0  0  0  0
  6 23  1  0  0  0  0
  7  8  2  0  0  0  0
  8  9  1  0  0  0  0
  9 13  1  0  0  0  0
 10  3  2  0  0  0  0
 11  7  1  0  0  0  0
 11 24  1  0  0  0  0
 12  8  1  0  0  0  0
 12 25  1  0  0  0  0
 13  5  1  0  0  0  0
 13 26  1  0  0  0  0
 13 27  1  0  0  0  0
 14  3  1  0  0  0  0
 14 28  1  0  0  0  0
 15 11  2  0  0  0  0
 16 12  2  0  0  0  0
 16 15  1  0  0  0  0
 16 29  1  0  0  0  0
 17  7  1  0  0  0  0
 18 15  1  0  0  0  0
 18 30  1  0  0  0  0
 18 31  1  0  0  0  0
 19 17  1  0  0  0  0
 19 32  1  0  0  0  0
 19 33  1  0  0  0  0
 19 34  1  0  0  0  0
 20 18  1  0  0  0  0
 20 35  1  0  0  0  0
 20 36  1  0  0  0  0
 21 20  1  0  0  0  0
 21 37  1  0  0  0  0
 21 38  1  0  0  0  0
 21 39  1  0  0  0  0
M  END
>  <Mol_ID>
9176

>  <Formula>
C16H18O5

>  <MolWeight>
290.31112

>  <Cat>
P3248

>  <Name>
WYE-176270

>  <Synonyms>
N/A

>  <Target>
carnitine palmitoyltransferase

>  <Form>
free base

>  <CAS>
380173-60-4

>  <URL>
N/A

$$$$
