WYE-176249
 OpenBabel08302521443D

 38 41  0  0  0  0  0  0  0  0999 V2000
    0.2425   -1.2252   -0.0313 C   0  0  0  0  0  0  0  0  0  0  0  0
    0.0147   -2.6272   -0.0236 C   0  0  0  0  0  0  0  0  0  0  0  0
    1.4118   -0.6228   -0.1642 N   0  0  0  0  0  0  0  0  0  0  0  0
   -1.1015   -0.1419    0.1091 S   0  0  0  0  0  0  0  0  0  0  0  0
   -0.1620   -3.2820   -1.1825 C   0  0  0  0  0  0  0  0  0  0  0  0
   -0.0048   -3.3275    1.2843 C   0  0  0  0  0  0  0  0  0  0  0  0
    1.2738    0.7520   -0.0357 C   0  0  0  0  0  0  0  0  0  0  0  0
   -0.0295    1.1914    0.0824 C   0  0  0  0  0  0  0  0  0  0  0  0
   -0.3774   -4.7214   -1.1780 C   0  0  0  0  0  0  0  0  0  0  0  0
   -0.1582   -4.7104    1.2457 O   0  0  0  0  0  0  0  0  0  0  0  0
    0.0928   -2.7356    2.3559 O   0  0  0  0  0  0  0  0  0  0  0  0
    2.4293    1.6409   -0.0786 C   0  0  0  0  0  0  0  0  0  0  0  0
   -0.3532   -5.4016    0.0367 C   0  0  0  0  0  0  0  0  0  0  0  0
   -0.5973   -5.4487   -2.3514 C   0  0  0  0  0  0  0  0  0  0  0  0
    3.5592    1.2721   -0.8191 C   0  0  0  0  0  0  0  0  0  0  0  0
    2.4463    2.8642    0.6037 C   0  0  0  0  0  0  0  0  0  0  0  0
   -0.5291   -6.7804    0.1111 C   0  0  0  0  0  0  0  0  0  0  0  0
   -0.7811   -6.8364   -2.2948 C   0  0  0  0  0  0  0  0  0  0  0  0
    4.6687    2.1225   -0.9115 C   0  0  0  0  0  0  0  0  0  0  0  0
    3.5582    3.7089    0.5160 C   0  0  0  0  0  0  0  0  0  0  0  0
   -0.7412   -7.4885   -1.0639 C   0  0  0  0  0  0  0  0  0  0  0  0
    4.6698    3.3486   -0.2475 C   0  0  0  0  0  0  0  0  0  0  0  0
   -0.9098   -8.8378   -0.9683 O   0  0  0  0  0  0  0  0  0  0  0  0
    5.6808    4.2691   -0.2568 O   0  0  0  0  0  0  0  0  0  0  0  0
    6.8245    3.9571   -1.0426 C   0  0  0  0  0  0  0  0  0  0  0  0
   -0.1403   -2.7673   -2.1373 H   0  0  0  0  0  0  0  0  0  0  0  0
   -0.4029    2.2025    0.1492 H   0  0  0  0  0  0  0  0  0  0  0  0
   -0.6283   -4.9499   -3.3175 H   0  0  0  0  0  0  0  0  0  0  0  0
    3.5795    0.3162   -1.3393 H   0  0  0  0  0  0  0  0  0  0  0  0
    1.6087    3.1742    1.2230 H   0  0  0  0  0  0  0  0  0  0  0  0
   -0.5021   -7.2928    1.0674 H   0  0  0  0  0  0  0  0  0  0  0  0
   -0.9511   -7.3870   -3.2151 H   0  0  0  0  0  0  0  0  0  0  0  0
    5.5112    1.7932   -1.5096 H   0  0  0  0  0  0  0  0  0  0  0  0
    3.5572    4.6566    1.0500 H   0  0  0  0  0  0  0  0  0  0  0  0
   -1.0352   -9.2065   -1.8581 H   0  0  0  0  0  0  0  0  0  0  0  0
    7.2970    3.0281   -0.7066 H   0  0  0  0  0  0  0  0  0  0  0  0
    6.5673    3.9088   -2.1057 H   0  0  0  0  0  0  0  0  0  0  0  0
    7.5518    4.7638   -0.9100 H   0  0  0  0  0  0  0  0  0  0  0  0
  1  2  1  0  0  0  0
  1  3  2  0  0  0  0
  1  4  1  0  0  0  0
  2  5  2  0  0  0  0
  2  6  1  0  0  0  0
  3  7  1  0  0  0  0
  4  8  1  0  0  0  0
  5  9  1  0  0  0  0
  5 26  1  0  0  0  0
  6 10  1  0  0  0  0
  6 11  2  0  0  0  0
  7 12  1  0  0  0  0
  7  8  2  0  0  0  0
  8 27  1  0  0  0  0
  9 13  2  0  0  0  0
  9 14  1  0  0  0  0
 10 13  1  0  0  0  0
 12 15  2  0  0  0  0
 12 16  1  0  0  0  0
 13 17  1  0  0  0  0
 14 18  2  0  0  0  0
 14 28  1  0  0  0  0
 15 19  1  0  0  0  0
 15 29  1  0  0  0  0
 16 20  2  0  0  0  0
 16 30  1  0  0  0  0
 17 21  2  0  0  0  0
 17 31  1  0  0  0  0
 18 21  1  0  0  0  0
 18 32  1  0  0  0  0
 19 22  2  0  0  0  0
 19 33  1  0  0  0  0
 20 22  1  0  0  0  0
 20 34  1  0  0  0  0
 21 23  1  0  0  0  0
 22 24  1  0  0  0  0
 23 35  1  0  0  0  0
 24 25  1  0  0  0  0
 25 36  1  0  0  0  0
 25 37  1  0  0  0  0
 25 38  1  0  0  0  0
M  END
>  <Mol_ID>
9175

>  <Formula>
C19H13NO4S

>  <MolWeight>
351.37582

>  <Cat>
P3247

>  <Name>
WYE-176249

>  <Synonyms>
N/A

>  <Target>
VEGF

>  <Form>
free base

>  <CAS>
304881-10-5

>  <URL>
N/A

$$$$
