WZ4002
 OpenBabel08302521423D

 62 65  0  0  0  0  0  0  0  0999 V2000
    1.4308   -0.2848    0.1225 C   0  0  0  0  0  0  0  0  0  0  0  0
    0.4766   -1.3107    0.0302 C   0  0  0  0  0  0  0  0  0  0  0  0
   -0.8965   -1.0576   -0.0956 C   0  0  0  0  0  0  0  0  0  0  0  0
   -1.3438    0.2710   -0.1483 C   0  0  0  0  0  0  0  0  0  0  0  0
   -0.3952    1.3004   -0.0618 C   0  0  0  0  0  0  0  0  0  0  0  0
    0.9680    1.0280    0.0737 C   0  0  0  0  0  0  0  0  0  0  0  0
    2.7711   -0.6121    0.1854 N   0  0  0  0  0  0  0  0  0  0  0  0
    3.8243    0.3149   -0.2498 C   0  0  0  0  0  0  0  0  0  0  0  0
    5.0221   -0.5127   -0.7821 C   0  0  0  0  0  0  0  0  0  0  0  0
    5.5302   -1.4996    0.2035 N   0  0  0  0  0  0  0  0  0  0  0  0
    4.4168   -2.3744    0.6408 C   0  0  0  0  0  0  0  0  0  0  0  0
    3.2248   -1.5721    1.2051 C   0  0  0  0  0  0  0  0  0  0  0  0
    6.6029   -2.2997   -0.3799 C   0  0  0  0  0  0  0  0  0  0  0  0
   -2.7049    0.5679   -0.3716 N   0  0  0  0  0  0  0  0  0  0  0  0
   -3.4124    1.6410    0.1714 C   0  0  0  0  0  0  0  0  0  0  0  0
   -4.5649    2.0033   -0.4105 N   0  0  0  0  0  0  0  0  0  0  0  0
   -5.2111    3.0636    0.1180 C   0  0  0  0  0  0  0  0  0  0  0  0
   -4.8118    3.7081    1.2614 C   0  0  0  0  0  0  0  0  0  0  0  0
   -3.6792    3.1965    1.8346 C   0  0  0  0  0  0  0  0  0  0  0  0
   -2.9421    2.2269    1.2755 N   0  0  0  0  0  0  0  0  0  0  0  0
   -3.2963    3.6886    3.0747 O   0  0  0  0  0  0  0  0  0  0  0  0
   -2.6832    2.7939    3.9323 C   0  0  0  0  0  0  0  0  0  0  0  0
   -1.6343    3.2819    4.7143 C   0  0  0  0  0  0  0  0  0  0  0  0
   -0.9603    2.4389    5.6055 C   0  0  0  0  0  0  0  0  0  0  0  0
   -1.3359    1.0911    5.6855 C   0  0  0  0  0  0  0  0  0  0  0  0
   -2.4109    0.6110    4.9362 C   0  0  0  0  0  0  0  0  0  0  0  0
   -3.0992    1.4666    4.0794 C   0  0  0  0  0  0  0  0  0  0  0  0
    0.0977    2.8726    6.4374 N   0  0  0  0  0  0  0  0  0  0  0  0
    0.4170    4.1900    6.7089 C   0  0  0  0  0  0  0  0  0  0  0  0
    1.6047    4.3176    7.6026 C   0  0  0  0  0  0  0  0  0  0  0  0
   -0.1836    5.1819    6.3285 O   0  0  0  0  0  0  0  0  0  0  0  0
    1.9842    5.5333    8.0195 C   0  0  0  0  0  0  0  0  0  0  0  0
   -1.8612   -2.0367   -0.1742 O   0  0  0  0  0  0  0  0  0  0  0  0
   -1.4030   -3.3814   -0.0571 C   0  0  0  0  0  0  0  0  0  0  0  0
    0.8458   -2.3276    0.0002 H   0  0  0  0  0  0  0  0  0  0  0  0
   -0.7100    2.3402   -0.1153 H   0  0  0  0  0  0  0  0  0  0  0  0
    1.6510    1.8677    0.1471 H   0  0  0  0  0  0  0  0  0  0  0  0
    4.1405    0.9525    0.5848 H   0  0  0  0  0  0  0  0  0  0  0  0
    3.4767    0.9632   -1.0631 H   0  0  0  0  0  0  0  0  0  0  0  0
    5.8258    0.1785   -1.0609 H   0  0  0  0  0  0  0  0  0  0  0  0
    4.7020   -1.0310   -1.6969 H   0  0  0  0  0  0  0  0  0  0  0  0
    4.0592   -2.9829   -0.2021 H   0  0  0  0  0  0  0  0  0  0  0  0
    4.7697   -3.0625    1.4174 H   0  0  0  0  0  0  0  0  0  0  0  0
    3.5279   -1.0306    2.1106 H   0  0  0  0  0  0  0  0  0  0  0  0
    2.4426   -2.2771    1.5064 H   0  0  0  0  0  0  0  0  0  0  0  0
    6.9914   -3.0106    0.3579 H   0  0  0  0  0  0  0  0  0  0  0  0
    6.2721   -2.8635   -1.2596 H   0  0  0  0  0  0  0  0  0  0  0  0
    7.4408   -1.6590   -0.6744 H   0  0  0  0  0  0  0  0  0  0  0  0
   -3.2964   -0.2504   -0.4158 H   0  0  0  0  0  0  0  0  0  0  0  0
   -6.1010    3.3755   -0.4206 H   0  0  0  0  0  0  0  0  0  0  0  0
   -5.3656    4.5259    1.6964 H   0  0  0  0  0  0  0  0  0  0  0  0
   -1.3414    4.3180    4.5824 H   0  0  0  0  0  0  0  0  0  0  0  0
   -0.8209    0.4037    6.3502 H   0  0  0  0  0  0  0  0  0  0  0  0
   -2.7148   -0.4297    5.0139 H   0  0  0  0  0  0  0  0  0  0  0  0
   -3.9347    1.0789    3.5044 H   0  0  0  0  0  0  0  0  0  0  0  0
    0.6005    2.1494    6.9316 H   0  0  0  0  0  0  0  0  0  0  0  0
    2.1555    3.4328    7.8913 H   0  0  0  0  0  0  0  0  0  0  0  0
    2.8490    5.6693    8.6583 H   0  0  0  0  0  0  0  0  0  0  0  0
    1.4368    6.4267    7.7250 H   0  0  0  0  0  0  0  0  0  0  0  0
   -0.8024   -3.6636   -0.9288 H   0  0  0  0  0  0  0  0  0  0  0  0
   -0.8448   -3.5409    0.8734 H   0  0  0  0  0  0  0  0  0  0  0  0
   -2.2772   -4.0377   -0.0272 H   0  0  0  0  0  0  0  0  0  0  0  0
  1  2  2  0  0  0  0
  1  7  1  0  0  0  0
  2  3  1  0  0  0  0
  2 35  1  0  0  0  0
  3  4  2  0  0  0  0
  3 33  1  0  0  0  0
  4  5  1  0  0  0  0
  4 14  1  0  0  0  0
  5  6  2  0  0  0  0
  5 36  1  0  0  0  0
  6  1  1  0  0  0  0
  6 37  1  0  0  0  0
  7  8  1  0  0  0  0
  8  9  1  0  0  0  0
  8 38  1  0  0  0  0
  8 39  1  0  0  0  0
  9 10  1  0  0  0  0
  9 40  1  0  0  0  0
  9 41  1  0  0  0  0
 10 11  1  0  0  0  0
 10 13  1  0  0  0  0
 11 12  1  0  0  0  0
 11 42  1  0  0  0  0
 11 43  1  0  0  0  0
 12  7  1  0  0  0  0
 12 44  1  0  0  0  0
 12 45  1  0  0  0  0
 13 46  1  0  0  0  0
 13 47  1  0  0  0  0
 13 48  1  0  0  0  0
 14 15  1  0  0  0  0
 14 49  1  0  0  0  0
 15 16  2  0  0  0  0
 16 17  1  0  0  0  0
 17 18  2  0  0  0  0
 17 50  1  0  0  0  0
 18 19  1  0  0  0  0
 18 51  1  0  0  0  0
 19 20  2  0  0  0  0
 19 21  1  0  0  0  0
 20 15  1  0  0  0  0
 21 22  1  0  0  0  0
 22 23  2  0  0  0  0
 23 24  1  0  0  0  0
 23 52  1  0  0  0  0
 24 25  2  0  0  0  0
 24 28  1  0  0  0  0
 25 26  1  0  0  0  0
 25 53  1  0  0  0  0
 26 27  2  0  0  0  0
 26 54  1  0  0  0  0
 27 22  1  0  0  0  0
 27 55  1  0  0  0  0
 28 29  1  0  0  0  0
 28 56  1  0  0  0  0
 29 30  1  0  0  0  0
 29 31  2  0  0  0  0
 30 32  2  0  0  0  0
 30 57  1  0  0  0  0
 32 58  1  0  0  0  0
 32 59  1  0  0  0  0
 33 34  1  0  0  0  0
 34 60  1  0  0  0  0
 34 61  1  0  0  0  0
 34 62  1  0  0  0  0
M  END
>  <Mol_ID>
99

>  <Formula>
C25H27ClN6O3

>  <MolWeight>
494.97328

>  <Cat>
S1173

>  <Name>
WZ4002

>  <Synonyms>
N/A

>  <Target>
EGFR

>  <Form>
free base

>  <CAS>
1213269-23-8

>  <URL>
http://selleckchem.com/products/WZ4002.html

$$$$
