X-GAL
 OpenBabel08302521243D

 38 40  0  0  0  0  0  0  0  0999 V2000
   -3.2844   -5.4194   -2.0139 C   0  0  0  0  0  0  0  0  0  0  0  0
   -2.8664   -5.6820   -0.6661 C   0  0  0  0  0  0  0  0  0  0  0  0
   -4.2736   -6.3657   -2.3087 C   0  0  0  0  0  0  0  0  0  0  0  0
   -2.9330   -4.5039   -3.0281 C   0  0  0  0  0  0  0  0  0  0  0  0
   -1.9339   -5.1160    0.1341 O   0  0  0  0  0  0  0  0  0  0  0  0
   -3.5834   -6.7646   -0.2050 C   0  0  0  0  0  0  0  0  0  0  0  0
   -4.4431   -7.1552   -1.1979 N   0  0  0  0  0  0  0  0  0  0  0  0
   -4.9203   -6.4295   -3.5516 C   0  0  0  0  0  0  0  0  0  0  0  0
   -3.5682   -4.5563   -4.2698 C   0  0  0  0  0  0  0  0  0  0  0  0
   -1.6761   -3.7328   -0.1053 C   0  0  2  0  0  0  0  0  0  0  0  0
   -4.5494   -5.5047   -4.5339 C   0  0  0  0  0  0  0  0  0  0  0  0
   -3.0816   -3.3134   -5.6118 Br  0  0  0  0  0  0  0  0  0  0  0  0
   -0.5312   -3.5993   -0.9622 O   0  0  0  0  0  0  0  0  0  0  0  0
   -1.4106   -3.0426    1.2528 C   0  0  1  0  0  0  0  0  0  0  0  0
   -0.2609   -2.2276   -1.2908 C   0  0  1  0  0  0  0  0  0  0  0  0
   -0.9401   -1.5888    1.0279 C   0  0  2  0  0  0  0  0  0  0  0  0
   -2.6144   -3.0566    2.0448 O   0  0  0  0  0  0  0  0  0  0  0  0
    0.1719   -1.4763   -0.0247 C   0  0  1  0  0  0  0  0  0  0  0  0
    0.8030   -2.2197   -2.3906 C   0  0  0  0  0  0  0  0  0  0  0  0
   -0.4844   -1.0345    2.2680 O   0  0  0  0  0  0  0  0  0  0  0  0
    1.3765   -1.9875    0.5667 O   0  0  0  0  0  0  0  0  0  0  0  0
    0.3049   -2.9096   -3.5347 O   0  0  0  0  0  0  0  0  0  0  0  0
   -2.1727   -3.7536   -2.8562 H   0  0  0  0  0  0  0  0  0  0  0  0
   -3.5582   -7.2758    0.7463 H   0  0  0  0  0  0  0  0  0  0  0  0
   -5.0907   -7.9228   -1.1314 H   0  0  0  0  0  0  0  0  0  0  0  0
   -5.6863   -7.1699   -3.7575 H   0  0  0  0  0  0  0  0  0  0  0  0
   -2.5538   -3.2471   -0.5540 H   0  0  0  0  0  0  0  0  0  0  0  0
   -5.0334   -5.5375   -5.5065 H   0  0  0  0  0  0  0  0  0  0  0  0
   -0.6550   -3.5970    1.8227 H   0  0  0  0  0  0  0  0  0  0  0  0
   -1.1797   -1.7866   -1.6990 H   0  0  0  0  0  0  0  0  0  0  0  0
   -1.7976   -0.9806    0.7148 H   0  0  0  0  0  0  0  0  0  0  0  0
   -2.8302   -2.1392    2.2978 H   0  0  0  0  0  0  0  0  0  0  0  0
    0.3615   -0.4241   -0.2482 H   0  0  0  0  0  0  0  0  0  0  0  0
    1.0498   -1.1973   -2.6907 H   0  0  0  0  0  0  0  0  0  0  0  0
    1.7190   -2.7324   -2.0844 H   0  0  0  0  0  0  0  0  0  0  0  0
    0.4527   -1.3257    2.3557 H   0  0  0  0  0  0  0  0  0  0  0  0
    1.6980   -2.7497    0.0467 H   0  0  0  0  0  0  0  0  0  0  0  0
    0.0970   -3.8182   -3.2354 H   0  0  0  0  0  0  0  0  0  0  0  0
  1  2  1  0  0  0  0
  1  3  1  0  0  0  0
  1  4  2  0  0  0  0
  2  5  1  0  0  0  0
  2  6  2  0  0  0  0
  3  7  1  0  0  0  0
  3  8  2  0  0  0  0
  4  9  1  0  0  0  0
  4 23  1  0  0  0  0
  6  7  1  0  0  0  0
  6 24  1  0  0  0  0
  7 25  1  0  0  0  0
  8 11  1  0  0  0  0
  8 26  1  0  0  0  0
  9 12  1  0  0  0  0
  9 11  2  0  0  0  0
 10 13  1  0  0  0  0
 10 14  1  0  0  0  0
 10 27  1  6  0  0  0
 10  5  1  0  0  0  0
 11 28  1  0  0  0  0
 13 15  1  0  0  0  0
 14 16  1  0  0  0  0
 14 17  1  0  0  0  0
 14 29  1  1  0  0  0
 15 18  1  0  0  0  0
 15 19  1  0  0  0  0
 15 30  1  6  0  0  0
 16 20  1  0  0  0  0
 16 18  1  0  0  0  0
 16 31  1  6  0  0  0
 17 32  1  0  0  0  0
 18 21  1  0  0  0  0
 18 33  1  6  0  0  0
 19 22  1  0  0  0  0
 19 34  1  0  0  0  0
 19 35  1  0  0  0  0
 20 36  1  0  0  0  0
 21 37  1  0  0  0  0
 22 38  1  0  0  0  0
M  END
>  <Mol_ID>
4949

>  <Formula>
C14H15BrClNO6

>  <MolWeight>
408.629

>  <Cat>
S6820

>  <Name>
X-GAL

>  <Synonyms>
BCIG

>  <Target>
Dyes

>  <Form>
Free Base

>  <CAS>
7240-90-6

>  <URL>
http://www.selleckchem.com/products/x-gal.html

$$$$
