Xanthohumol.cdx
 OpenBabel08302519553D

 48 49  0  0  0  0  0  0  0  0999 V2000
    1.2171   -0.2206    0.0335 C   0  0  0  0  0  0  0  0  0  0  0  0
    1.2028    1.1699    0.0213 C   0  0  0  0  0  0  0  0  0  0  0  0
   -0.0106    1.8844    0.0130 C   0  0  0  0  0  0  0  0  0  0  0  0
   -1.2247    1.1623    0.0201 C   0  0  0  0  0  0  0  0  0  0  0  0
   -1.1840   -0.2514   -0.0174 C   0  0  0  0  0  0  0  0  0  0  0  0
    0.0353   -0.9622    0.0084 C   0  0  0  0  0  0  0  0  0  0  0  0
    0.0705   -2.4804    0.0067 C   0  0  0  0  0  0  0  0  0  0  0  0
    0.0280   -3.0656    1.3967 C   0  0  0  0  0  0  0  0  0  0  0  0
   -0.8890   -3.9315    1.8737 C   0  0  0  0  0  0  0  0  0  0  0  0
   -0.8500   -4.4140    3.2979 C   0  0  0  0  0  0  0  0  0  0  0  0
   -2.0204   -4.4655    1.0426 C   0  0  0  0  0  0  0  0  0  0  0  0
    2.4169   -0.8863    0.0462 O   0  0  0  0  0  0  0  0  0  0  0  0
   -0.0718    3.2449   -0.0426 O   0  0  0  0  0  0  0  0  0  0  0  0
    1.1423    3.9839   -0.0314 C   0  0  0  0  0  0  0  0  0  0  0  0
   -2.3234   -1.0104   -0.1124 O   0  0  0  0  0  0  0  0  0  0  0  0
   -2.5486    1.8762    0.0080 C   0  0  0  0  0  0  0  0  0  0  0  0
   -2.6997    3.1544    0.7778 C   0  0  0  0  0  0  0  0  0  0  0  0
   -3.4949    1.3705   -0.6054 O   0  0  0  0  0  0  0  0  0  0  0  0
   -3.6899    4.0398    0.5374 C   0  0  0  0  0  0  0  0  0  0  0  0
   -3.8495    5.3012    1.3064 C   0  0  0  0  0  0  0  0  0  0  0  0
   -2.7641    6.0127    1.8418 C   0  0  0  0  0  0  0  0  0  0  0  0
   -2.9610    7.1776    2.6010 C   0  0  0  0  0  0  0  0  0  0  0  0
   -4.2525    7.6519    2.8065 C   0  0  0  0  0  0  0  0  0  0  0  0
   -5.3375    6.9940    2.2452 C   0  0  0  0  0  0  0  0  0  0  0  0
   -5.1383    5.8284    1.4904 C   0  0  0  0  0  0  0  0  0  0  0  0
   -4.4926    8.7630    3.5548 O   0  0  0  0  0  0  0  0  0  0  0  0
    2.1570    1.6954    0.0038 H   0  0  0  0  0  0  0  0  0  0  0  0
   -0.7352   -2.8615   -0.6282 H   0  0  0  0  0  0  0  0  0  0  0  0
    0.9858   -2.8281   -0.4850 H   0  0  0  0  0  0  0  0  0  0  0  0
    0.8346   -2.7387    2.0513 H   0  0  0  0  0  0  0  0  0  0  0  0
   -1.7682   -4.1193    3.8160 H   0  0  0  0  0  0  0  0  0  0  0  0
   -0.7679   -5.5053    3.3289 H   0  0  0  0  0  0  0  0  0  0  0  0
   -0.0050   -3.9983    3.8561 H   0  0  0  0  0  0  0  0  0  0  0  0
   -2.6736   -3.6549    0.7069 H   0  0  0  0  0  0  0  0  0  0  0  0
   -1.6374   -5.0084    0.1732 H   0  0  0  0  0  0  0  0  0  0  0  0
   -2.6386   -5.1655    1.6148 H   0  0  0  0  0  0  0  0  0  0  0  0
    3.1507   -0.2582    0.0300 H   0  0  0  0  0  0  0  0  0  0  0  0
    1.7180    3.7867    0.8792 H   0  0  0  0  0  0  0  0  0  0  0  0
    1.7316    3.7779   -0.9299 H   0  0  0  0  0  0  0  0  0  0  0  0
    0.8876    5.0480   -0.0382 H   0  0  0  0  0  0  0  0  0  0  0  0
   -2.9534   -0.5255   -0.6877 H   0  0  0  0  0  0  0  0  0  0  0  0
   -1.9500    3.3366    1.5383 H   0  0  0  0  0  0  0  0  0  0  0  0
   -4.4431    3.8256   -0.2011 H   0  0  0  0  0  0  0  0  0  0  0  0
   -1.7428    5.6741    1.6804 H   0  0  0  0  0  0  0  0  0  0  0  0
   -2.1023    7.6880    3.0248 H   0  0  0  0  0  0  0  0  0  0  0  0
   -6.3416    7.3756    2.4030 H   0  0  0  0  0  0  0  0  0  0  0  0
   -6.0046    5.3290    1.0666 H   0  0  0  0  0  0  0  0  0  0  0  0
   -3.6478    9.1137    3.8784 H   0  0  0  0  0  0  0  0  0  0  0  0
  1  2  2  0  0  0  0
  1 12  1  0  0  0  0
  2  3  1  0  0  0  0
  2 27  1  0  0  0  0
  3  4  2  0  0  0  0
  3 13  1  0  0  0  0
  4  5  1  0  0  0  0
  4 16  1  0  0  0  0
  5  6  2  0  0  0  0
  5 15  1  0  0  0  0
  6  1  1  0  0  0  0
  6  7  1  0  0  0  0
  7  8  1  0  0  0  0
  7 28  1  0  0  0  0
  7 29  1  0  0  0  0
  8  9  2  0  0  0  0
  8 30  1  0  0  0  0
  9 10  1  0  0  0  0
  9 11  1  0  0  0  0
 10 31  1  0  0  0  0
 10 32  1  0  0  0  0
 10 33  1  0  0  0  0
 11 34  1  0  0  0  0
 11 35  1  0  0  0  0
 11 36  1  0  0  0  0
 12 37  1  0  0  0  0
 13 14  1  0  0  0  0
 14 38  1  0  0  0  0
 14 39  1  0  0  0  0
 14 40  1  0  0  0  0
 15 41  1  0  0  0  0
 16 17  1  0  0  0  0
 16 18  2  0  0  0  0
 17 19  2  0  0  0  0
 17 42  1  0  0  0  0
 19 20  1  0  0  0  0
 19 43  1  0  0  0  0
 20 21  2  0  0  0  0
 21 22  1  0  0  0  0
 21 44  1  0  0  0  0
 22 23  2  0  0  0  0
 22 45  1  0  0  0  0
 23 24  1  0  0  0  0
 23 26  1  0  0  0  0
 24 25  2  0  0  0  0
 24 46  1  0  0  0  0
 25 20  1  0  0  0  0
 25 47  1  0  0  0  0
 26 48  1  0  0  0  0
M  END
>  <Mol_ID>
2166

>  <Formula>
C21H22O5

>  <MolWeight>
354.39638

>  <Cat>
S7889

>  <Name>
Xanthohumol

>  <Synonyms>
N/A

>  <Target>
Acyltransferase,Apoptosis related,CMV,COX

>  <Form>
free base

>  <CAS>
6754-58-1

>  <URL>
http://selleckchem.com/products/xanthohumol.html

$$$$
