XL228
 OpenBabel08302521283D

 63 67  0  0  0  0  0  0  0  0999 V2000
   -1.1830    0.5252   -1.0364 O   0  0  0  0  0  0  0  0  0  0  0  0
   -1.0212   10.6458    0.1622 N   0  0  0  0  0  0  0  0  0  0  0  0
    2.1753    6.3490    2.2578 N   0  0  0  0  0  0  0  0  0  0  0  0
   -1.1884    9.3627    0.4859 N   0  0  0  0  0  0  0  0  0  0  0  0
    4.4640    7.3575    3.7018 N   0  0  0  0  0  0  0  0  0  0  0  0
   -1.3019    7.3795   -0.8378 N   0  0  0  0  0  0  0  0  0  0  0  0
    0.5178    4.7143    1.7476 N   0  0  0  0  0  0  0  0  0  0  0  0
   -1.2126    5.2390    0.1923 N   0  0  0  0  0  0  0  0  0  0  0  0
   -1.0804    3.1239    1.2550 N   0  0  0  0  0  0  0  0  0  0  0  0
   -1.2422   -0.8521   -0.9529 N   0  0  0  0  0  0  0  0  0  0  0  0
   -0.7530   12.1934   -1.8655 C   0  0  0  0  0  0  0  0  0  0  0  0
    0.1507   13.2132   -1.1955 C   0  0  0  0  0  0  0  0  0  0  0  0
   -1.3226   13.4333   -1.2048 C   0  0  0  0  0  0  0  0  0  0  0  0
   -0.9829   10.8656   -1.1803 C   0  0  0  0  0  0  0  0  0  0  0  0
   -1.1770    9.6373   -1.7705 C   0  0  0  0  0  0  0  0  0  0  0  0
   -1.2585    8.7257   -0.6870 C   0  0  0  0  0  0  0  0  0  0  0  0
    2.5402    5.7116    3.5184 C   0  0  0  0  0  0  0  0  0  0  0  0
    3.3233    6.8781    1.5087 C   0  0  0  0  0  0  0  0  0  0  0  0
    3.2815    6.7686    4.3840 C   0  0  0  0  0  0  0  0  0  0  0  0
    4.0585    7.9131    2.3891 C   0  0  0  0  0  0  0  0  0  0  0  0
    1.0576    5.9250    1.5581 C   0  0  0  0  0  0  0  0  0  0  0  0
   -0.6873    6.4613    0.0452 C   0  0  0  0  0  0  0  0  0  0  0  0
    5.0689    8.3993    4.5285 C   0  0  0  0  0  0  0  0  0  0  0  0
    0.4690    6.8221    0.7010 C   0  0  0  0  0  0  0  0  0  0  0  0
   -0.5944    4.4130    1.0535 C   0  0  0  0  0  0  0  0  0  0  0  0
   -1.7901    2.5630    0.1179 C   0  0  0  0  0  0  0  0  0  0  0  0
   -2.0948   -2.5495    0.6076 C   0  0  0  0  0  0  0  0  0  0  0  0
   -1.7670    1.0753    0.0626 C   0  0  0  0  0  0  0  0  0  0  0  0
   -1.8618   -1.1240    0.2032 C   0  0  0  0  0  0  0  0  0  0  0  0
   -2.2147    0.0681    0.8830 C   0  0  0  0  0  0  0  0  0  0  0  0
   -1.4231   -2.8774    1.9423 C   0  0  0  0  0  0  0  0  0  0  0  0
   -3.5869   -2.8819    0.6645 C   0  0  0  0  0  0  0  0  0  0  0  0
   -0.9095   11.3202    0.9109 H   0  0  0  0  0  0  0  0  0  0  0  0
   -2.1462    6.9594   -1.2091 H   0  0  0  0  0  0  0  0  0  0  0  0
   -0.2911    2.5833    1.5904 H   0  0  0  0  0  0  0  0  0  0  0  0
   -0.7340   12.1681   -2.9498 H   0  0  0  0  0  0  0  0  0  0  0  0
    0.6322   12.9652   -0.2604 H   0  0  0  0  0  0  0  0  0  0  0  0
    0.7573   13.8487   -1.8326 H   0  0  0  0  0  0  0  0  0  0  0  0
   -1.7248   14.2025   -1.8530 H   0  0  0  0  0  0  0  0  0  0  0  0
   -1.8591   13.3422   -0.2662 H   0  0  0  0  0  0  0  0  0  0  0  0
   -1.1782    9.4111   -2.8268 H   0  0  0  0  0  0  0  0  0  0  0  0
    3.1882    4.8450    3.3394 H   0  0  0  0  0  0  0  0  0  0  0  0
    1.6559    5.3724    4.0711 H   0  0  0  0  0  0  0  0  0  0  0  0
    4.0006    6.0574    1.2412 H   0  0  0  0  0  0  0  0  0  0  0  0
    3.0354    7.3694    0.5720 H   0  0  0  0  0  0  0  0  0  0  0  0
    3.5945    6.2975    5.3211 H   0  0  0  0  0  0  0  0  0  0  0  0
    2.5681    7.5677    4.6385 H   0  0  0  0  0  0  0  0  0  0  0  0
    3.3975    8.7798    2.5317 H   0  0  0  0  0  0  0  0  0  0  0  0
    4.9445    8.2632    1.8460 H   0  0  0  0  0  0  0  0  0  0  0  0
    5.9603    8.8069    4.0389 H   0  0  0  0  0  0  0  0  0  0  0  0
    4.3789    9.2269    4.7294 H   0  0  0  0  0  0  0  0  0  0  0  0
    5.3973    7.9835    5.4872 H   0  0  0  0  0  0  0  0  0  0  0  0
    0.8749    7.8188    0.5963 H   0  0  0  0  0  0  0  0  0  0  0  0
   -1.3864    2.9367   -0.8326 H   0  0  0  0  0  0  0  0  0  0  0  0
   -2.8391    2.8840    0.1665 H   0  0  0  0  0  0  0  0  0  0  0  0
   -1.6444   -3.2041   -0.1516 H   0  0  0  0  0  0  0  0  0  0  0  0
   -2.7206    0.1774    1.8304 H   0  0  0  0  0  0  0  0  0  0  0  0
   -1.8492   -2.2904    2.7636 H   0  0  0  0  0  0  0  0  0  0  0  0
   -1.5469   -3.9377    2.1876 H   0  0  0  0  0  0  0  0  0  0  0  0
   -0.3490   -2.6647    1.9028 H   0  0  0  0  0  0  0  0  0  0  0  0
   -4.0722   -2.6725   -0.2954 H   0  0  0  0  0  0  0  0  0  0  0  0
   -3.7389   -3.9424    0.8930 H   0  0  0  0  0  0  0  0  0  0  0  0
   -4.1016   -2.2945    1.4329 H   0  0  0  0  0  0  0  0  0  0  0  0
  1 10  1  0  0  0  0
  1 28  1  0  0  0  0
  2  4  1  0  0  0  0
  2 14  1  0  0  0  0
  2 33  1  0  0  0  0
  3 17  1  0  0  0  0
  3 18  1  0  0  0  0
  3 21  1  0  0  0  0
  4 16  2  0  0  0  0
  5 19  1  0  0  0  0
  5 20  1  0  0  0  0
  5 23  1  0  0  0  0
  6 16  1  0  0  0  0
  6 22  1  0  0  0  0
  6 34  1  0  0  0  0
  7 21  2  0  0  0  0
  7 25  1  0  0  0  0
  8 22  1  0  0  0  0
  8 25  2  0  0  0  0
  9 25  1  0  0  0  0
  9 26  1  0  0  0  0
  9 35  1  0  0  0  0
 10 29  2  0  0  0  0
 11 12  1  0  0  0  0
 11 13  1  0  0  0  0
 11 14  1  0  0  0  0
 11 36  1  0  0  0  0
 12 13  1  0  0  0  0
 12 37  1  0  0  0  0
 12 38  1  0  0  0  0
 13 39  1  0  0  0  0
 13 40  1  0  0  0  0
 14 15  2  0  0  0  0
 15 16  1  0  0  0  0
 15 41  1  0  0  0  0
 17 19  1  0  0  0  0
 17 42  1  0  0  0  0
 17 43  1  0  0  0  0
 18 20  1  0  0  0  0
 18 44  1  0  0  0  0
 18 45  1  0  0  0  0
 19 46  1  0  0  0  0
 19 47  1  0  0  0  0
 20 48  1  0  0  0  0
 20 49  1  0  0  0  0
 21 24  1  0  0  0  0
 22 24  2  0  0  0  0
 23 50  1  0  0  0  0
 23 51  1  0  0  0  0
 23 52  1  0  0  0  0
 24 53  1  0  0  0  0
 26 28  1  0  0  0  0
 26 54  1  0  0  0  0
 26 55  1  0  0  0  0
 27 29  1  0  0  0  0
 27 31  1  0  0  0  0
 27 32  1  0  0  0  0
 27 56  1  0  0  0  0
 28 30  2  0  0  0  0
 29 30  1  0  0  0  0
 30 57  1  0  0  0  0
 31 58  1  0  0  0  0
 31 59  1  0  0  0  0
 31 60  1  0  0  0  0
 32 61  1  0  0  0  0
 32 62  1  0  0  0  0
 32 63  1  0  0  0  0
M  END
>  <Mol_ID>
5416

>  <Formula>
C22H31N9O

>  <MolWeight>
437.54124

>  <Cat>
S1272

>  <Name>
XL228

>  <Synonyms>
N/A

>  <Target>
Aurora Kinase,Bcr-Abl,IGF-1R,Src

>  <Form>
Free Base

>  <CAS>
898280-07-4

>  <URL>
https://www.selleckchem.com/products/xl228.html

$$$$
