XRK3F2
 OpenBabel08302521043D

 52 54  0  0  0  0  0  0  0  0999 V2000
    1.4177   -0.1554   -0.0013 C   0  0  0  0  0  0  0  0  0  0  0  0
    0.6713   -1.3225    0.1701 C   0  0  0  0  0  0  0  0  0  0  0  0
   -0.7105   -1.2114    0.3541 C   0  0  0  0  0  0  0  0  0  0  0  0
   -1.3539    0.0326    0.3135 C   0  0  0  0  0  0  0  0  0  0  0  0
   -0.5827    1.2063    0.2157 C   0  0  0  0  0  0  0  0  0  0  0  0
    0.8032    1.0973    0.0442 C   0  0  0  0  0  0  0  0  0  0  0  0
    1.2973   -2.6916    0.0574 C   0  0  0  0  0  0  0  0  0  0  0  0
   -2.7254    0.1540    0.3237 O   0  0  0  0  0  0  0  0  0  0  0  0
   -1.2394    2.4185    0.2542 O   0  0  0  0  0  0  0  0  0  0  0  0
   -0.4343    3.5737    0.5392 C   0  0  0  0  0  0  0  0  0  0  0  0
   -1.2637    4.7382    1.0468 C   0  0  0  0  0  0  0  0  0  0  0  0
   -3.4974   -0.9825   -0.1206 C   0  0  0  0  0  0  0  0  0  0  0  0
   -3.2849   -1.3809   -1.5744 C   0  0  0  0  0  0  0  0  0  0  0  0
   -2.5078    4.5277    1.6574 C   0  0  0  0  0  0  0  0  0  0  0  0
   -3.2038    5.5882    2.2402 C   0  0  0  0  0  0  0  0  0  0  0  0
   -2.6567    6.8634    2.2165 C   0  0  0  0  0  0  0  0  0  0  0  0
   -1.4334    7.1053    1.6034 C   0  0  0  0  0  0  0  0  0  0  0  0
   -0.7348    6.0439    1.0209 C   0  0  0  0  0  0  0  0  0  0  0  0
   -3.4543   -2.7164   -1.9888 C   0  0  0  0  0  0  0  0  0  0  0  0
   -3.2554   -3.0730   -3.3278 C   0  0  0  0  0  0  0  0  0  0  0  0
   -2.8996   -2.0980   -4.2527 C   0  0  0  0  0  0  0  0  0  0  0  0
   -2.7585   -0.7708   -3.8719 C   0  0  0  0  0  0  0  0  0  0  0  0
   -2.9649   -0.4139   -2.5408 C   0  0  0  0  0  0  0  0  0  0  0  0
    2.3747   -2.8834    1.0263 N   0  0  0  0  0  0  0  0  0  0  0  0
    2.9601   -4.2248    0.8688 C   0  0  0  0  0  0  0  0  0  0  0  0
    4.1343   -4.3856    1.8385 C   0  0  0  0  0  0  0  0  0  0  0  0
    3.6980   -4.1600    3.1758 O   0  0  0  0  0  0  0  0  0  0  0  0
   -3.3106    7.8722    2.8077 F   0  0  0  0  0  0  0  0  0  0  0  0
   -2.6905   -2.4442   -5.5303 F   0  0  0  0  0  0  0  0  0  0  0  0
    2.4917   -0.2071   -0.1771 H   0  0  0  0  0  0  0  0  0  0  0  0
   -1.2761   -2.1250    0.5024 H   0  0  0  0  0  0  0  0  0  0  0  0
    1.4347    1.9692   -0.0920 H   0  0  0  0  0  0  0  0  0  0  0  0
    0.5279   -3.4585    0.2174 H   0  0  0  0  0  0  0  0  0  0  0  0
    1.6606   -2.8109   -0.9707 H   0  0  0  0  0  0  0  0  0  0  0  0
    0.2943    3.3544    1.3309 H   0  0  0  0  0  0  0  0  0  0  0  0
    0.0858    3.8747   -0.3787 H   0  0  0  0  0  0  0  0  0  0  0  0
   -3.3424   -1.8312    0.5580 H   0  0  0  0  0  0  0  0  0  0  0  0
   -4.5530   -0.7069   -0.0069 H   0  0  0  0  0  0  0  0  0  0  0  0
   -2.9341    3.5265    1.6985 H   0  0  0  0  0  0  0  0  0  0  0  0
   -4.1590    5.4175    2.7243 H   0  0  0  0  0  0  0  0  0  0  0  0
   -1.0269    8.1114    1.6001 H   0  0  0  0  0  0  0  0  0  0  0  0
    0.2344    6.2423    0.5640 H   0  0  0  0  0  0  0  0  0  0  0  0
   -3.7376   -3.4881   -1.2777 H   0  0  0  0  0  0  0  0  0  0  0  0
   -3.3714   -4.1014   -3.6562 H   0  0  0  0  0  0  0  0  0  0  0  0
   -2.4860   -0.0220   -4.6086 H   0  0  0  0  0  0  0  0  0  0  0  0
   -2.8505    0.6324   -2.2509 H   0  0  0  0  0  0  0  0  0  0  0  0
    3.0955   -2.1841    0.8535 H   0  0  0  0  0  0  0  0  0  0  0  0
    2.1966   -4.9762    1.1023 H   0  0  0  0  0  0  0  0  0  0  0  0
    3.3100   -4.3825   -0.1574 H   0  0  0  0  0  0  0  0  0  0  0  0
    4.5519   -5.3941    1.7728 H   0  0  0  0  0  0  0  0  0  0  0  0
    4.9281   -3.6657    1.6133 H   0  0  0  0  0  0  0  0  0  0  0  0
    3.0669   -3.4144    3.1157 H   0  0  0  0  0  0  0  0  0  0  0  0
  1  2  2  0  0  0  0
  1 30  1  0  0  0  0
  2  3  1  0  0  0  0
  2  7  1  0  0  0  0
  3  4  2  0  0  0  0
  3 31  1  0  0  0  0
  4  5  1  0  0  0  0
  4  8  1  0  0  0  0
  5  6  2  0  0  0  0
  5  9  1  0  0  0  0
  6  1  1  0  0  0  0
  6 32  1  0  0  0  0
  7 24  1  0  0  0  0
  7 33  1  0  0  0  0
  7 34  1  0  0  0  0
  8 12  1  0  0  0  0
  9 10  1  0  0  0  0
 10 11  1  0  0  0  0
 10 35  1  0  0  0  0
 10 36  1  0  0  0  0
 11 14  2  0  0  0  0
 12 13  1  0  0  0  0
 12 37  1  0  0  0  0
 12 38  1  0  0  0  0
 13 19  2  0  0  0  0
 14 15  1  0  0  0  0
 14 39  1  0  0  0  0
 15 16  2  0  0  0  0
 15 40  1  0  0  0  0
 16 17  1  0  0  0  0
 16 28  1  0  0  0  0
 17 18  2  0  0  0  0
 17 41  1  0  0  0  0
 18 11  1  0  0  0  0
 18 42  1  0  0  0  0
 19 20  1  0  0  0  0
 19 43  1  0  0  0  0
 20 21  2  0  0  0  0
 20 44  1  0  0  0  0
 21 22  1  0  0  0  0
 21 29  1  0  0  0  0
 22 23  2  0  0  0  0
 22 45  1  0  0  0  0
 23 13  1  0  0  0  0
 23 46  1  0  0  0  0
 24 25  1  0  0  0  0
 24 47  1  0  0  0  0
 25 26  1  0  0  0  0
 25 48  1  0  0  0  0
 25 49  1  0  0  0  0
 26 27  1  0  0  0  0
 26 50  1  0  0  0  0
 26 51  1  0  0  0  0
 27 52  1  0  0  0  0
M  END
>  <Mol_ID>
4316

>  <Formula>
C23H24ClF2NO3

>  <MolWeight>
435.8913664

>  <Cat>
S8756

>  <Name>
XRK3F2

>  <Synonyms>
N/A

>  <Target>
Others,RUNX

>  <Form>
Free Base

>  <CAS>
2375193-43-2

>  <URL>
http://www.selleckchem.com/products/xrk3f2.html

$$$$
