Xylitol.cdx
 OpenBabel08302519503D

 22 21  0  0  0  0  0  0  0  0999 V2000
    0.6947   -2.3235   -2.2092 O   0  0  0  0  0  0  0  0  0  0  0  0
    0.7378   -1.6055   -0.9747 C   0  0  0  0  0  0  0  0  0  0  0  0
   -0.6634   -1.1964   -0.4944 C   0  0  2  0  0  0  0  0  0  0  0  0
   -1.4389   -2.3740   -0.2469 O   0  0  0  0  0  0  0  0  0  0  0  0
   -1.3853   -0.1876   -1.4100 C   0  0  1  0  0  0  0  0  0  0  0  0
   -0.6352    1.0439   -1.4339 O   0  0  0  0  0  0  0  0  0  0  0  0
   -1.6521   -0.6115   -2.8695 C   0  0  2  0  0  0  0  0  0  0  0  0
   -2.3068    0.5205   -3.5042 O   0  0  0  0  0  0  0  0  0  0  0  0
   -2.5685   -1.8258   -3.0227 C   0  0  0  0  0  0  0  0  0  0  0  0
   -3.8239   -1.5761   -2.3853 O   0  0  0  0  0  0  0  0  0  0  0  0
    1.5112   -2.8507   -2.2484 H   0  0  0  0  0  0  0  0  0  0  0  0
    1.1920   -2.2683   -0.2295 H   0  0  0  0  0  0  0  0  0  0  0  0
    1.3837   -0.7329   -1.1060 H   0  0  0  0  0  0  0  0  0  0  0  0
   -0.5243   -0.7127    0.4808 H   0  0  0  0  0  0  0  0  0  0  0  0
   -2.3623   -2.1046   -0.0936 H   0  0  0  0  0  0  0  0  0  0  0  0
   -2.3464    0.0678   -0.9455 H   0  0  0  0  0  0  0  0  0  0  0  0
   -1.0758    1.5836   -2.1218 H   0  0  0  0  0  0  0  0  0  0  0  0
   -0.7135   -0.7498   -3.4141 H   0  0  0  0  0  0  0  0  0  0  0  0
   -2.2986    0.3423   -4.4629 H   0  0  0  0  0  0  0  0  0  0  0  0
   -2.7812   -2.0064   -4.0818 H   0  0  0  0  0  0  0  0  0  0  0  0
   -2.1355   -2.7373   -2.6069 H   0  0  0  0  0  0  0  0  0  0  0  0
   -4.1343   -0.7177   -2.7345 H   0  0  0  0  0  0  0  0  0  0  0  0
  1  2  1  0  0  0  0
  1 11  1  0  0  0  0
  2 12  1  0  0  0  0
  2 13  1  0  0  0  0
  3  4  1  0  0  0  0
  3  2  1  0  0  0  0
  3 14  1  1  0  0  0
  3  5  1  0  0  0  0
  4 15  1  0  0  0  0
  5 16  1  1  0  0  0
  5  6  1  0  0  0  0
  6 17  1  0  0  0  0
  7  8  1  0  0  0  0
  7  5  1  0  0  0  0
  7 18  1  6  0  0  0
  7  9  1  0  0  0  0
  8 19  1  0  0  0  0
  9 10  1  0  0  0  0
  9 20  1  0  0  0  0
  9 21  1  0  0  0  0
 10 22  1  0  0  0  0
M  END
>  <Mol_ID>
1519

>  <Formula>
C5H12O5

>  <MolWeight>
152.14578

>  <Cat>
S4546

>  <Name>
Xylitol

>  <Synonyms>
Adonitol, Ribitol, Xylite, D-Xylitol, Adonite

>  <Target>
Autophagy

>  <Form>
free base

>  <CAS>
87-99-0

>  <URL>
http://selleckchem.com/products/xylitol.html

$$$$
