Y-27632 2HCL.cdx
 OpenBabel08302520003D

 39 40  0  0  0  0  0  0  0  0999 V2000
   -1.4717    0.5561   -0.5085 C   0  0  1  0  0  0  0  0  0  0  0  0
   -1.3324   -0.6982    0.3693 C   0  0  0  0  0  0  0  0  0  0  0  0
    0.1106   -1.2096    0.3845 C   0  0  0  0  0  0  0  0  0  0  0  0
    1.1714   -0.1645    0.7994 C   0  0  1  0  0  0  0  0  0  0  0  0
    0.8788    1.2345    0.1962 C   0  0  0  0  0  0  0  0  0  0  0  0
   -0.5912    1.6356    0.1118 C   0  0  0  0  0  0  0  0  0  0  0  0
   -1.2609    0.1781   -1.9913 C   0  0  0  0  0  0  0  0  0  0  0  0
   -1.6497   -0.9204   -2.3872 O   0  0  0  0  0  0  0  0  0  0  0  0
   -0.6872    1.1351   -2.8136 N   0  0  0  0  0  0  0  0  0  0  0  0
   -0.5628   -0.1249   -6.3224 C   0  0  0  0  0  0  0  0  0  0  0  0
   -0.9338   -0.0451   -4.9873 C   0  0  0  0  0  0  0  0  0  0  0  0
   -0.4077    0.9786   -4.2001 C   0  0  0  0  0  0  0  0  0  0  0  0
    0.4489    1.8991   -4.8072 C   0  0  0  0  0  0  0  0  0  0  0  0
    0.7677    1.7295   -6.1495 C   0  0  0  0  0  0  0  0  0  0  0  0
    0.2833    0.7366   -6.9216 N   0  0  0  0  0  0  0  0  0  0  0  0
    1.4527   -0.1544    2.3330 C   0  0  1  0  0  0  0  0  0  0  0  0
    2.0106   -1.4972    2.8331 C   0  0  0  0  0  0  0  0  0  0  0  0
    2.4587    0.8666    2.6630 N   0  0  0  0  0  0  0  0  0  0  0  0
   -2.5142    0.8982   -0.4563 H   0  0  0  0  0  0  0  0  0  0  0  0
   -1.6541   -0.4714    1.3935 H   0  0  0  0  0  0  0  0  0  0  0  0
   -1.9936   -1.4974    0.0124 H   0  0  0  0  0  0  0  0  0  0  0  0
    0.1508   -2.1026    1.0132 H   0  0  0  0  0  0  0  0  0  0  0  0
    0.3657   -1.5620   -0.6230 H   0  0  0  0  0  0  0  0  0  0  0  0
    2.1152   -0.4909    0.3368 H   0  0  0  0  0  0  0  0  0  0  0  0
    1.4144    2.0248    0.7333 H   0  0  0  0  0  0  0  0  0  0  0  0
    1.2937    1.2502   -0.8184 H   0  0  0  0  0  0  0  0  0  0  0  0
   -0.6898    2.5815   -0.4326 H   0  0  0  0  0  0  0  0  0  0  0  0
   -0.9565    1.8425    1.1275 H   0  0  0  0  0  0  0  0  0  0  0  0
   -0.2965    1.9575   -2.3787 H   0  0  0  0  0  0  0  0  0  0  0  0
   -0.9541   -0.9160   -6.9587 H   0  0  0  0  0  0  0  0  0  0  0  0
   -1.6381   -0.7746   -4.6086 H   0  0  0  0  0  0  0  0  0  0  0  0
    0.8924    2.7220   -4.2604 H   0  0  0  0  0  0  0  0  0  0  0  0
    1.4496    2.4081   -6.6547 H   0  0  0  0  0  0  0  0  0  0  0  0
    0.5324    0.0798    2.8790 H   0  0  0  0  0  0  0  0  0  0  0  0
    2.9063   -1.7904    2.2721 H   0  0  0  0  0  0  0  0  0  0  0  0
    2.2874   -1.4421    3.8926 H   0  0  0  0  0  0  0  0  0  0  0  0
    1.2802   -2.3057    2.7471 H   0  0  0  0  0  0  0  0  0  0  0  0
    2.7053    0.8017    3.6507 H   0  0  0  0  0  0  0  0  0  0  0  0
    3.3213    0.6725    2.1524 H   0  0  0  0  0  0  0  0  0  0  0  0
  1  2  1  0  0  0  0
  1  6  1  0  0  0  0
  1  7  1  0  0  0  0
  1 19  1  1  0  0  0
  2  3  1  0  0  0  0
  2 20  1  0  0  0  0
  2 21  1  0  0  0  0
  3 22  1  0  0  0  0
  3 23  1  0  0  0  0
  4  3  1  0  0  0  0
  4  5  1  0  0  0  0
  4 16  1  0  0  0  0
  4 24  1  6  0  0  0
  5  6  1  0  0  0  0
  5 25  1  0  0  0  0
  5 26  1  0  0  0  0
  6 27  1  0  0  0  0
  6 28  1  0  0  0  0
  7  8  2  0  0  0  0
  7  9  1  0  0  0  0
  9 12  1  0  0  0  0
  9 29  1  0  0  0  0
 10 11  2  0  0  0  0
 10 15  1  0  0  0  0
 10 30  1  0  0  0  0
 11 12  1  0  0  0  0
 11 31  1  0  0  0  0
 12 13  2  0  0  0  0
 13 14  1  0  0  0  0
 13 32  1  0  0  0  0
 14 15  2  0  0  0  0
 14 33  1  0  0  0  0
 16 17  1  0  0  0  0
 16 18  1  0  0  0  0
 16 34  1  1  0  0  0
 17 35  1  0  0  0  0
 17 36  1  0  0  0  0
 17 37  1  0  0  0  0
 18 38  1  0  0  0  0
 18 39  1  0  0  0  0
M  END
>  <Mol_ID>
32

>  <Formula>
C14H23Cl2N3O

>  <MolWeight>
320.25792

>  <Cat>
S1049

>  <Name>
Y-27632 2HCl

>  <Synonyms>
N/A

>  <Target>
Autophagy,ROCK

>  <Form>
Dihydrochloride

>  <CAS>
129830-38-2

>  <URL>
http://selleckchem.com/products/Y-27632.html

$$$$
