Y-39983 HCl.cdx
 OpenBabel08302520003D

 37 39  0  0  0  0  0  0  0  0999 V2000
   -5.0333   -2.7714   -0.4330 N   0  0  0  0  0  0  0  0  0  0  0  0
   -4.3023   -3.8699   -0.6913 C   0  0  0  0  0  0  0  0  0  0  0  0
   -2.9590   -4.1085   -0.3839 C   0  0  0  0  0  0  0  0  0  0  0  0
   -2.2389   -3.0374    0.1958 C   0  0  0  0  0  0  0  0  0  0  0  0
   -2.9867   -1.8873    0.5198 C   0  0  0  0  0  0  0  0  0  0  0  0
   -4.3360   -1.8177    0.2061 C   0  0  0  0  0  0  0  0  0  0  0  0
   -4.8043   -4.9569   -1.3516 N   0  0  0  0  0  0  0  0  0  0  0  0
   -3.8681   -5.9487   -1.3871 C   0  0  0  0  0  0  0  0  0  0  0  0
   -2.7322   -5.4625   -0.7749 C   0  0  0  0  0  0  0  0  0  0  0  0
   -0.8459   -2.9465    0.4438 N   0  0  0  0  0  0  0  0  0  0  0  0
    0.1618   -3.8257    0.0937 C   0  0  0  0  0  0  0  0  0  0  0  0
    0.0431   -4.9469   -0.3847 O   0  0  0  0  0  0  0  0  0  0  0  0
    1.5498   -3.2940    0.2418 C   0  0  0  0  0  0  0  0  0  0  0  0
    1.9065   -2.3723    1.2328 C   0  0  0  0  0  0  0  0  0  0  0  0
    3.1854   -1.8020    1.2319 C   0  0  0  0  0  0  0  0  0  0  0  0
    4.1253   -2.1489    0.2500 C   0  0  0  0  0  0  0  0  0  0  0  0
    3.7927   -3.1492   -0.6738 C   0  0  0  0  0  0  0  0  0  0  0  0
    2.5160   -3.7133   -0.6829 C   0  0  0  0  0  0  0  0  0  0  0  0
    5.4474   -1.4052    0.1591 C   0  0  1  0  0  0  0  0  0  0  0  0
    6.5861   -2.3112    0.2889 N   0  0  0  0  0  0  0  0  0  0  0  0
    5.5460   -0.6350   -1.1614 C   0  0  0  0  0  0  0  0  0  0  0  0
   -2.5261   -1.0322    1.0034 H   0  0  0  0  0  0  0  0  0  0  0  0
   -4.9136   -0.9326    0.4631 H   0  0  0  0  0  0  0  0  0  0  0  0
   -5.7383   -4.9967   -1.7306 H   0  0  0  0  0  0  0  0  0  0  0  0
   -4.0789   -6.9092   -1.8370 H   0  0  0  0  0  0  0  0  0  0  0  0
   -1.8354   -6.0470   -0.6356 H   0  0  0  0  0  0  0  0  0  0  0  0
   -0.5410   -2.0374    0.7617 H   0  0  0  0  0  0  0  0  0  0  0  0
    1.2065   -2.0853    2.0134 H   0  0  0  0  0  0  0  0  0  0  0  0
    3.4332   -1.0644    1.9920 H   0  0  0  0  0  0  0  0  0  0  0  0
    4.5223   -3.4730   -1.4155 H   0  0  0  0  0  0  0  0  0  0  0  0
    2.2663   -4.4602   -1.4354 H   0  0  0  0  0  0  0  0  0  0  0  0
    5.5047   -0.6749    0.9765 H   0  0  0  0  0  0  0  0  0  0  0  0
    7.4495   -1.7691    0.2858 H   0  0  0  0  0  0  0  0  0  0  0  0
    6.5403   -2.7721    1.1967 H   0  0  0  0  0  0  0  0  0  0  0  0
    4.6942    0.0448   -1.2799 H   0  0  0  0  0  0  0  0  0  0  0  0
    6.4609   -0.0332   -1.1986 H   0  0  0  0  0  0  0  0  0  0  0  0
    5.5539   -1.3041   -2.0302 H   0  0  0  0  0  0  0  0  0  0  0  0
  1  2  2  0  0  0  0
  2  3  1  0  0  0  0
  2  7  1  0  0  0  0
  3  4  2  0  0  0  0
  4  5  1  0  0  0  0
  4 10  1  0  0  0  0
  5  6  2  0  0  0  0
  5 22  1  0  0  0  0
  6  1  1  0  0  0  0
  6 23  1  0  0  0  0
  7  8  1  0  0  0  0
  7 24  1  0  0  0  0
  8  9  2  0  0  0  0
  8 25  1  0  0  0  0
  9  3  1  0  0  0  0
  9 26  1  0  0  0  0
 10 11  1  0  0  0  0
 10 27  1  0  0  0  0
 11 12  2  0  0  0  0
 11 13  1  0  0  0  0
 13 14  2  0  0  0  0
 14 15  1  0  0  0  0
 14 28  1  0  0  0  0
 15 16  2  0  0  0  0
 15 29  1  0  0  0  0
 16 17  1  0  0  0  0
 16 19  1  0  0  0  0
 17 18  2  0  0  0  0
 17 30  1  0  0  0  0
 18 13  1  0  0  0  0
 18 31  1  0  0  0  0
 19 20  1  0  0  0  0
 19 21  1  0  0  0  0
 19 32  1  1  0  0  0
 20 33  1  0  0  0  0
 20 34  1  0  0  0  0
 21 35  1  0  0  0  0
 21 36  1  0  0  0  0
 21 37  1  0  0  0  0
M  END
>  <Mol_ID>
2715

>  <Formula>
C16H18Cl2N4O

>  <MolWeight>
353.24632

>  <Cat>
S7935

>  <Name>
Y-39983 HCl

>  <Synonyms>
Y-33075 HCl

>  <Target>
ROCK

>  <Form>
dihydrochloride

>  <CAS>
173897-44-4

>  <URL>
http://selleckchem.com/products/y-39983-hcl.html

$$$$
