Y06036
 OpenBabel08302521273D

 40 42  0  0  0  0  0  0  0  0999 V2000
    4.9042   -5.5224    5.2214 Br  0  0  0  0  0  0  0  0  0  0  0  0
    3.0394   -2.9337    0.7083 S   0  0  0  0  0  0  0  0  0  0  0  0
   -3.3105   -3.4439   -0.1491 O   0  0  0  0  0  0  0  0  0  0  0  0
    0.7649   -2.2970   -2.2792 O   0  0  0  0  0  0  0  0  0  0  0  0
    2.1758   -2.5807    1.8169 O   0  0  0  0  0  0  0  0  0  0  0  0
    3.6128   -1.9075   -0.1355 O   0  0  0  0  0  0  0  0  0  0  0  0
    6.0773   -3.5478   -0.3648 O   0  0  0  0  0  0  0  0  0  0  0  0
    2.2083   -4.0715   -0.2669 N   0  0  0  0  0  0  0  0  0  0  0  0
   -3.6872   -4.2678    0.8957 N   0  0  0  0  0  0  0  0  0  0  0  0
    0.7718   -3.8859   -0.3538 C   0  0  0  0  0  0  0  0  0  0  0  0
   -1.4187   -4.3586    0.6235 C   0  0  0  0  0  0  0  0  0  0  0  0
   -0.0201   -4.5495    0.6161 C   0  0  0  0  0  0  0  0  0  0  0  0
   -1.9645   -3.5020   -0.3130 C   0  0  0  0  0  0  0  0  0  0  0  0
    4.3730   -3.9167    1.3996 C   0  0  0  0  0  0  0  0  0  0  0  0
    0.1597   -3.0268   -1.2905 C   0  0  0  0  0  0  0  0  0  0  0  0
   -1.2295   -2.8155   -1.2696 C   0  0  0  0  0  0  0  0  0  0  0  0
   -2.5512   -4.8081    1.3586 C   0  0  0  0  0  0  0  0  0  0  0  0
    5.6370   -4.0659    0.8175 C   0  0  0  0  0  0  0  0  0  0  0  0
    4.1539   -4.4019    2.7073 C   0  0  0  0  0  0  0  0  0  0  0  0
   -2.6089   -5.7599    2.4922 C   0  0  0  0  0  0  0  0  0  0  0  0
    6.6628   -4.6816    1.5591 C   0  0  0  0  0  0  0  0  0  0  0  0
    5.1941   -4.9950    3.4303 C   0  0  0  0  0  0  0  0  0  0  0  0
    6.4489   -5.1410    2.8611 C   0  0  0  0  0  0  0  0  0  0  0  0
    1.8780   -2.8861   -2.9293 C   0  0  0  0  0  0  0  0  0  0  0  0
    5.4100   -3.9934   -1.5379 C   0  0  0  0  0  0  0  0  0  0  0  0
    2.4801   -5.0283   -0.0491 H   0  0  0  0  0  0  0  0  0  0  0  0
    0.4358   -5.1820    1.3707 H   0  0  0  0  0  0  0  0  0  0  0  0
   -1.7167   -2.1583   -1.9818 H   0  0  0  0  0  0  0  0  0  0  0  0
    3.1919   -4.2608    3.1978 H   0  0  0  0  0  0  0  0  0  0  0  0
   -2.2447   -6.7439    2.1805 H   0  0  0  0  0  0  0  0  0  0  0  0
   -1.9971   -5.4090    3.3286 H   0  0  0  0  0  0  0  0  0  0  0  0
   -3.6345   -5.8861    2.8581 H   0  0  0  0  0  0  0  0  0  0  0  0
    7.6606   -4.7652    1.1285 H   0  0  0  0  0  0  0  0  0  0  0  0
    7.2732   -5.5671    3.4253 H   0  0  0  0  0  0  0  0  0  0  0  0
    2.7920   -2.6054   -2.4134 H   0  0  0  0  0  0  0  0  0  0  0  0
    1.7903   -3.9726   -3.0315 H   0  0  0  0  0  0  0  0  0  0  0  0
    1.9415   -2.4612   -3.9361 H   0  0  0  0  0  0  0  0  0  0  0  0
    4.8414   -4.9183   -1.3977 H   0  0  0  0  0  0  0  0  0  0  0  0
    4.7665   -3.1952   -1.9030 H   0  0  0  0  0  0  0  0  0  0  0  0
    6.1618   -4.1660   -2.3152 H   0  0  0  0  0  0  0  0  0  0  0  0
  1 22  1  0  0  0  0
  2  5  2  0  0  0  0
  2  6  2  0  0  0  0
  2  8  1  0  0  0  0
  2 14  1  0  0  0  0
  3  9  1  0  0  0  0
  3 13  1  0  0  0  0
  4 15  1  0  0  0  0
  4 24  1  0  0  0  0
  7 18  1  0  0  0  0
  7 25  1  0  0  0  0
  8 10  1  0  0  0  0
  8 26  1  0  0  0  0
  9 17  2  0  0  0  0
 10 12  2  0  0  0  0
 10 15  1  0  0  0  0
 11 12  1  0  0  0  0
 11 13  2  0  0  0  0
 11 17  1  0  0  0  0
 12 27  1  0  0  0  0
 13 16  1  0  0  0  0
 14 18  2  0  0  0  0
 14 19  1  0  0  0  0
 15 16  2  0  0  0  0
 16 28  1  0  0  0  0
 17 20  1  0  0  0  0
 18 21  1  0  0  0  0
 19 22  2  0  0  0  0
 19 29  1  0  0  0  0
 20 30  1  0  0  0  0
 20 31  1  0  0  0  0
 20 32  1  0  0  0  0
 21 23  2  0  0  0  0
 21 33  1  0  0  0  0
 22 23  1  0  0  0  0
 23 34  1  0  0  0  0
 24 35  1  0  0  0  0
 24 36  1  0  0  0  0
 24 37  1  0  0  0  0
 25 38  1  0  0  0  0
 25 39  1  0  0  0  0
 25 40  1  0  0  0  0
M  END
>  <Mol_ID>
5370

>  <Formula>
C16H15BrN2O5S

>  <MolWeight>
427.2697

>  <Cat>
S0344

>  <Name>
Y06036

>  <Synonyms>
N/A

>  <Target>
Epigenetic Reader Domain

>  <Form>
Free Base

>  <CAS>
1832671-96-1

>  <URL>
https://www.selleckchem.com/products/y06036.html

$$$$
