YL 0919
 OpenBabel08302521323D

 44 46  0  0  0  0  0  0  0  0999 V2000
    0.8698   -0.0289    0.0892 C   0  0  0  0  0  0  0  0  0  0  0  0
    0.5305    0.8271   -1.1571 C   0  0  0  0  0  0  0  0  0  0  0  0
    1.0880   -1.4582   -0.1631 N   0  0  0  0  0  0  0  0  0  0  0  0
   -0.7271    0.3565   -1.6785 O   0  0  0  0  0  0  0  0  0  0  0  0
    1.6278    0.7687   -2.2271 C   0  0  0  0  0  0  0  0  0  0  0  0
    0.3637    2.2920   -0.7188 C   0  0  0  0  0  0  0  0  0  0  0  0
    2.3940   -1.9317   -0.2737 C   0  0  0  0  0  0  0  0  0  0  0  0
   -0.0071   -2.3029   -0.2588 C   0  0  0  0  0  0  0  0  0  0  0  0
    1.3358    1.7134   -3.3945 C   0  0  0  0  0  0  0  0  0  0  0  0
    0.0635    3.2055   -1.9044 C   0  0  0  0  0  0  0  0  0  0  0  0
    3.3991   -1.2257   -0.2721 O   0  0  0  0  0  0  0  0  0  0  0  0
    2.5467   -3.4100   -0.3724 C   0  0  0  0  0  0  0  0  0  0  0  0
    0.1444   -3.6253   -0.3996 C   0  0  0  0  0  0  0  0  0  0  0  0
    1.0521    3.0920   -2.9792 N   0  0  0  0  0  0  0  0  0  0  0  0
    1.4661   -4.1992   -0.4202 C   0  0  0  0  0  0  0  0  0  0  0  0
    0.7326    3.9711   -4.1285 C   0  0  0  0  0  0  0  0  0  0  0  0
   -0.5068    3.5907   -4.9171 C   0  0  0  0  0  0  0  0  0  0  0  0
   -1.7753    4.0495   -4.5315 C   0  0  0  0  0  0  0  0  0  0  0  0
   -0.4152    2.6950   -5.9943 C   0  0  0  0  0  0  0  0  0  0  0  0
   -2.9266    3.5600   -5.1505 C   0  0  0  0  0  0  0  0  0  0  0  0
   -1.5664    2.2079   -6.6138 C   0  0  0  0  0  0  0  0  0  0  0  0
   -2.8218    2.6274   -6.1800 C   0  0  0  0  0  0  0  0  0  0  0  0
    0.0495    0.0430    0.8160 H   0  0  0  0  0  0  0  0  0  0  0  0
    1.7601    0.3765    0.5822 H   0  0  0  0  0  0  0  0  0  0  0  0
   -0.9289    0.8364   -2.5001 H   0  0  0  0  0  0  0  0  0  0  0  0
    2.5972    1.0360   -1.7871 H   0  0  0  0  0  0  0  0  0  0  0  0
    1.7160   -0.2457   -2.6327 H   0  0  0  0  0  0  0  0  0  0  0  0
   -0.4636    2.3763   -0.0039 H   0  0  0  0  0  0  0  0  0  0  0  0
    1.2717    2.6418   -0.2129 H   0  0  0  0  0  0  0  0  0  0  0  0
   -0.9936   -1.8465   -0.2275 H   0  0  0  0  0  0  0  0  0  0  0  0
    2.2049    1.7090   -4.0642 H   0  0  0  0  0  0  0  0  0  0  0  0
    0.5012    1.2840   -3.9585 H   0  0  0  0  0  0  0  0  0  0  0  0
    0.0433    4.2399   -1.5384 H   0  0  0  0  0  0  0  0  0  0  0  0
   -0.9458    2.9752   -2.2564 H   0  0  0  0  0  0  0  0  0  0  0  0
    3.5579   -3.7939   -0.3780 H   0  0  0  0  0  0  0  0  0  0  0  0
   -0.7123   -4.2857   -0.4875 H   0  0  0  0  0  0  0  0  0  0  0  0
    1.5634   -5.2785   -0.4625 H   0  0  0  0  0  0  0  0  0  0  0  0
    0.6301    5.0083   -3.7740 H   0  0  0  0  0  0  0  0  0  0  0  0
    1.5964    4.0027   -4.8070 H   0  0  0  0  0  0  0  0  0  0  0  0
   -1.8755    4.7595   -3.7135 H   0  0  0  0  0  0  0  0  0  0  0  0
    0.5575    2.3369   -6.3255 H   0  0  0  0  0  0  0  0  0  0  0  0
   -3.9057    3.8918   -4.8151 H   0  0  0  0  0  0  0  0  0  0  0  0
   -1.4827    1.4846   -7.4206 H   0  0  0  0  0  0  0  0  0  0  0  0
   -3.7189    2.2263   -6.6437 H   0  0  0  0  0  0  0  0  0  0  0  0
  1  2  1  0  0  0  0
  1  3  1  0  0  0  0
  1 23  1  0  0  0  0
  1 24  1  0  0  0  0
  2  4  1  0  0  0  0
  2  5  1  0  0  0  0
  2  6  1  0  0  0  0
  3  7  1  0  0  0  0
  3  8  1  0  0  0  0
  4 25  1  0  0  0  0
  5  9  1  0  0  0  0
  5 26  1  0  0  0  0
  5 27  1  0  0  0  0
  6 10  1  0  0  0  0
  6 28  1  0  0  0  0
  6 29  1  0  0  0  0
  7 11  2  0  0  0  0
  7 12  1  0  0  0  0
  8 13  2  0  0  0  0
  8 30  1  0  0  0  0
  9 14  1  0  0  0  0
  9 31  1  0  0  0  0
  9 32  1  0  0  0  0
 10 14  1  0  0  0  0
 10 33  1  0  0  0  0
 10 34  1  0  0  0  0
 12 15  2  0  0  0  0
 12 35  1  0  0  0  0
 13 15  1  0  0  0  0
 13 36  1  0  0  0  0
 14 16  1  0  0  0  0
 15 37  1  0  0  0  0
 16 17  1  0  0  0  0
 16 38  1  0  0  0  0
 16 39  1  0  0  0  0
 17 18  2  0  0  0  0
 17 19  1  0  0  0  0
 18 20  1  0  0  0  0
 18 40  1  0  0  0  0
 19 21  2  0  0  0  0
 19 41  1  0  0  0  0
 20 22  2  0  0  0  0
 20 42  1  0  0  0  0
 21 22  1  0  0  0  0
 21 43  1  0  0  0  0
 22 44  1  0  0  0  0
M  END
>  <Mol_ID>
6152

>  <Formula>
C18H23ClN2O2

>  <MolWeight>
334.84042

>  <Cat>
S0282

>  <Name>
YL 0919

>  <Synonyms>
N/A

>  <Target>
5-HT Receptor,5-HT Receptor

>  <Form>
hydrochloride

>  <CAS>
1339058-04-6

>  <URL>
http://www.selleckchem.com/products/yl-0919.html

$$$$
