YM201636.cdx
 OpenBabel08302521303D

 56 61  0  0  0  0  0  0  0  0999 V2000
   -1.4870   -7.1201   -4.7763 C   0  0  0  0  0  0  0  0  0  0  0  0
   -1.9519   -5.8659   -4.3912 C   0  0  0  0  0  0  0  0  0  0  0  0
   -2.4326   -5.0237   -5.3872 C   0  0  0  0  0  0  0  0  0  0  0  0
   -2.4755   -5.4861   -6.7045 C   0  0  0  0  0  0  0  0  0  0  0  0
   -2.0053   -6.7608   -6.9963 C   0  0  0  0  0  0  0  0  0  0  0  0
   -1.5112   -7.5808   -6.0579 N   0  0  0  0  0  0  0  0  0  0  0  0
   -1.8865   -5.4894   -2.9585 C   0  0  0  0  0  0  0  0  0  0  0  0
   -1.0211   -6.0343   -2.2811 O   0  0  0  0  0  0  0  0  0  0  0  0
   -2.8621   -4.6139   -2.5014 N   0  0  0  0  0  0  0  0  0  0  0  0
   -3.0061   -4.2010   -1.1496 C   0  0  0  0  0  0  0  0  0  0  0  0
   -1.9726   -4.2981   -0.2127 C   0  0  0  0  0  0  0  0  0  0  0  0
   -2.1721   -4.0401    1.1584 C   0  0  0  0  0  0  0  0  0  0  0  0
   -3.4574   -3.6158    1.5465 C   0  0  0  0  0  0  0  0  0  0  0  0
   -4.4779   -3.4325    0.6100 C   0  0  0  0  0  0  0  0  0  0  0  0
   -4.2502   -3.7146   -0.7364 C   0  0  0  0  0  0  0  0  0  0  0  0
   -1.0872   -4.2379    2.1469 C   0  0  0  0  0  0  0  0  0  0  0  0
    0.1175   -4.6371    1.6851 N   0  0  0  0  0  0  0  0  0  0  0  0
    1.0397   -4.8239    2.6556 C   0  0  0  0  0  0  0  0  0  0  0  0
    0.7769   -4.5807    3.9886 C   0  0  0  0  0  0  0  0  0  0  0  0
   -0.4755   -4.1556    4.4187 C   0  0  0  0  0  0  0  0  0  0  0  0
   -1.4083   -4.0161    3.4456 N   0  0  0  0  0  0  0  0  0  0  0  0
    1.8678   -4.8567    4.7541 O   0  0  0  0  0  0  0  0  0  0  0  0
    2.3777   -5.2925    2.5941 C   0  0  0  0  0  0  0  0  0  0  0  0
    2.8379   -5.2958    3.9105 C   0  0  0  0  0  0  0  0  0  0  0  0
    3.2645   -5.7340    1.5983 C   0  0  0  0  0  0  0  0  0  0  0  0
    4.5339   -6.1481    2.0067 C   0  0  0  0  0  0  0  0  0  0  0  0
    4.8623   -6.1007    3.3567 C   0  0  0  0  0  0  0  0  0  0  0  0
    4.0517   -5.6758    4.3479 N   0  0  0  0  0  0  0  0  0  0  0  0
   -2.6899   -2.8283    6.8684 C   0  0  0  0  0  0  0  0  0  0  0  0
   -2.1626   -4.1123    6.2164 C   0  0  0  0  0  0  0  0  0  0  0  0
   -0.8027   -3.9075    5.7262 N   0  0  0  0  0  0  0  0  0  0  0  0
    0.1385   -3.2901    6.6596 C   0  0  0  0  0  0  0  0  0  0  0  0
   -0.5049   -2.0342    7.2713 C   0  0  0  0  0  0  0  0  0  0  0  0
   -1.7816   -2.3249    7.8646 O   0  0  0  0  0  0  0  0  0  0  0  0
   -2.1050   -7.2670   -8.2890 N   0  0  0  0  0  0  0  0  0  0  0  0
   -1.0817   -7.8198   -4.0493 H   0  0  0  0  0  0  0  0  0  0  0  0
   -2.7514   -4.0092   -5.1698 H   0  0  0  0  0  0  0  0  0  0  0  0
   -2.8715   -4.8566   -7.4926 H   0  0  0  0  0  0  0  0  0  0  0  0
   -3.6496   -4.4358   -3.1037 H   0  0  0  0  0  0  0  0  0  0  0  0
   -0.9770   -4.5934   -0.5364 H   0  0  0  0  0  0  0  0  0  0  0  0
   -3.6735   -3.4268    2.5981 H   0  0  0  0  0  0  0  0  0  0  0  0
   -5.4580   -3.0957    0.9426 H   0  0  0  0  0  0  0  0  0  0  0  0
   -5.0712   -3.5944   -1.4385 H   0  0  0  0  0  0  0  0  0  0  0  0
    2.9672   -5.7643    0.5545 H   0  0  0  0  0  0  0  0  0  0  0  0
    5.2574   -6.5097    1.2825 H   0  0  0  0  0  0  0  0  0  0  0  0
    5.8451   -6.4276    3.6918 H   0  0  0  0  0  0  0  0  0  0  0  0
   -2.8631   -2.0486    6.1177 H   0  0  0  0  0  0  0  0  0  0  0  0
   -3.6430   -3.0330    7.3658 H   0  0  0  0  0  0  0  0  0  0  0  0
   -2.1244   -4.9070    6.9718 H   0  0  0  0  0  0  0  0  0  0  0  0
   -2.8573   -4.4468    5.4381 H   0  0  0  0  0  0  0  0  0  0  0  0
    0.3723   -4.0126    7.4495 H   0  0  0  0  0  0  0  0  0  0  0  0
    1.0774   -2.9887    6.1833 H   0  0  0  0  0  0  0  0  0  0  0  0
    0.1440   -1.6275    8.0529 H   0  0  0  0  0  0  0  0  0  0  0  0
   -0.6382   -1.2552    6.5102 H   0  0  0  0  0  0  0  0  0  0  0  0
   -1.6231   -8.1623   -8.3108 H   0  0  0  0  0  0  0  0  0  0  0  0
   -1.7671   -6.6255   -8.9942 H   0  0  0  0  0  0  0  0  0  0  0  0
  1  2  2  0  0  0  0
  1  6  1  0  0  0  0
  1 36  1  0  0  0  0
  2  3  1  0  0  0  0
  2  7  1  0  0  0  0
  3  4  2  0  0  0  0
  3 37  1  0  0  0  0
  4  5  1  0  0  0  0
  4 38  1  0  0  0  0
  5  6  2  0  0  0  0
  5 35  1  0  0  0  0
  7  8  2  0  0  0  0
  7  9  1  0  0  0  0
  9 10  1  0  0  0  0
  9 39  1  0  0  0  0
 10 11  2  0  0  0  0
 10 15  1  0  0  0  0
 11 12  1  0  0  0  0
 11 40  1  0  0  0  0
 12 13  2  0  0  0  0
 12 16  1  0  0  0  0
 13 14  1  0  0  0  0
 13 41  1  0  0  0  0
 14 15  2  0  0  0  0
 14 42  1  0  0  0  0
 15 43  1  0  0  0  0
 16 17  2  0  0  0  0
 16 21  1  0  0  0  0
 17 18  1  0  0  0  0
 18 19  2  0  0  0  0
 18 23  1  0  0  0  0
 19 20  1  0  0  0  0
 19 22  1  0  0  0  0
 20 21  2  0  0  0  0
 20 31  1  0  0  0  0
 22 24  1  0  0  0  0
 23 24  2  0  0  0  0
 23 25  1  0  0  0  0
 24 28  1  0  0  0  0
 25 26  2  0  0  0  0
 25 44  1  0  0  0  0
 26 27  1  0  0  0  0
 26 45  1  0  0  0  0
 27 28  2  0  0  0  0
 27 46  1  0  0  0  0
 29 30  1  0  0  0  0
 29 34  1  0  0  0  0
 29 47  1  0  0  0  0
 29 48  1  0  0  0  0
 30 31  1  0  0  0  0
 30 49  1  0  0  0  0
 30 50  1  0  0  0  0
 31 32  1  0  0  0  0
 32 33  1  0  0  0  0
 32 51  1  0  0  0  0
 32 52  1  0  0  0  0
 33 34  1  0  0  0  0
 33 53  1  0  0  0  0
 33 54  1  0  0  0  0
 35 55  1  0  0  0  0
 35 56  1  0  0  0  0
M  END
>  <Mol_ID>
533

>  <Formula>
C25H21N7O3

>  <MolWeight>
467.47934

>  <Cat>
S1219

>  <Name>
YM201636

>  <Synonyms>
N/A

>  <Target>
Autophagy,PI3K,PIKfyve

>  <Form>
free base

>  <CAS>
371942-69-7

>  <URL>
http://selleckchem.com/products/ym201636.html

$$$$
