Yoda1
 OpenBabel08302521233D

 29 31  0  0  0  0  0  0  0  0999 V2000
    0.5987    2.5216   -0.5682 C   0  0  0  0  0  0  0  0  0  0  0  0
    0.8749    1.1782   -0.3305 C   0  0  0  0  0  0  0  0  0  0  0  0
    1.5271    3.3367   -1.1421 N   0  0  0  0  0  0  0  0  0  0  0  0
    2.0670    0.6018   -0.6397 N   0  0  0  0  0  0  0  0  0  0  0  0
    2.9802    1.4255   -1.1982 C   0  0  0  0  0  0  0  0  0  0  0  0
    2.7143    2.7598   -1.4481 C   0  0  0  0  0  0  0  0  0  0  0  0
   -1.0139    4.7941   -0.3930 S   0  0  0  0  0  0  0  0  0  0  0  0
   -0.6746    3.1192   -0.1534 C   0  0  0  0  0  0  0  0  0  0  0  0
   -1.6502    2.4752    0.4652 N   0  0  0  0  0  0  0  0  0  0  0  0
   -2.6861    3.3113    0.8371 N   0  0  0  0  0  0  0  0  0  0  0  0
   -2.4681    4.5561    0.4755 C   0  0  0  0  0  0  0  0  0  0  0  0
   -3.5674    5.8599    0.8565 S   0  0  0  0  0  0  0  0  0  0  0  0
   -4.1838    5.2997    2.4729 C   0  0  0  0  0  0  0  0  0  0  0  0
   -5.1629    6.2859    3.0653 C   0  0  0  0  0  0  0  0  0  0  0  0
   -6.5254    6.2184    2.7347 C   0  0  0  0  0  0  0  0  0  0  0  0
   -7.4319    7.1369    3.2660 C   0  0  0  0  0  0  0  0  0  0  0  0
   -6.9903    8.1349    4.1313 C   0  0  0  0  0  0  0  0  0  0  0  0
   -5.6391    8.2158    4.4665 C   0  0  0  0  0  0  0  0  0  0  0  0
   -4.7290    7.2985    3.9353 C   0  0  0  0  0  0  0  0  0  0  0  0
    0.1473    0.5175    0.1300 H   0  0  0  0  0  0  0  0  0  0  0  0
    3.9410    0.9828   -1.4358 H   0  0  0  0  0  0  0  0  0  0  0  0
    3.4562    3.4107   -1.8980 H   0  0  0  0  0  0  0  0  0  0  0  0
   -4.6712    4.3237    2.3703 H   0  0  0  0  0  0  0  0  0  0  0  0
   -3.3384    5.1641    3.1579 H   0  0  0  0  0  0  0  0  0  0  0  0
   -6.8864    5.4490    2.0549 H   0  0  0  0  0  0  0  0  0  0  0  0
   -8.4829    7.0762    3.0007 H   0  0  0  0  0  0  0  0  0  0  0  0
   -7.6961    8.8514    4.5421 H   0  0  0  0  0  0  0  0  0  0  0  0
   -5.2942    8.9960    5.1396 H   0  0  0  0  0  0  0  0  0  0  0  0
   -3.6782    7.3819    4.2031 H   0  0  0  0  0  0  0  0  0  0  0  0
  1  2  2  0  0  0  0
  1  3  1  0  0  0  0
  1  8  1  0  0  0  0
  2  4  1  0  0  0  0
  2 20  1  0  0  0  0
  3  6  2  0  0  0  0
  4  5  2  0  0  0  0
  5  6  1  0  0  0  0
  5 21  1  0  0  0  0
  6 22  1  0  0  0  0
  7  8  1  0  0  0  0
  7 11  1  0  0  0  0
  8  9  2  0  0  0  0
  9 10  1  0  0  0  0
 10 11  2  0  0  0  0
 11 12  1  0  0  0  0
 12 13  1  0  0  0  0
 13 14  1  0  0  0  0
 13 23  1  0  0  0  0
 13 24  1  0  0  0  0
 14 15  2  0  0  0  0
 14 19  1  0  0  0  0
 15 16  1  0  0  0  0
 15 25  1  0  0  0  0
 16 17  2  0  0  0  0
 16 26  1  0  0  0  0
 17 18  1  0  0  0  0
 17 27  1  0  0  0  0
 18 19  2  0  0  0  0
 18 28  1  0  0  0  0
 19 29  1  0  0  0  0
M  END
>  <Mol_ID>
4846

>  <Formula>
C13H8Cl2N4S2

>  <MolWeight>
355.26542

>  <Cat>
S6678

>  <Name>
Yoda1

>  <Synonyms>
N/A

>  <Target>
Mechanosensitive Channel

>  <Form>
Free Base

>  <CAS>
448947-81-7

>  <URL>
http://www.selleck.cn/products/yoda1.html

$$$$
