YU238259.cdx
 OpenBabel08302520433D

 53 55  0  0  0  0  0  0  0  0999 V2000
    2.8843    1.4856    3.0017 C   0  0  0  0  0  0  0  0  0  0  0  0
    2.3166    0.2317    2.7625 C   0  0  0  0  0  0  0  0  0  0  0  0
    1.2940    0.1094    1.8145 C   0  0  0  0  0  0  0  0  0  0  0  0
    0.8331    1.2260    1.1136 C   0  0  0  0  0  0  0  0  0  0  0  0
    1.4000    2.4754    1.3721 C   0  0  0  0  0  0  0  0  0  0  0  0
    2.4278    2.6090    2.3072 C   0  0  0  0  0  0  0  0  0  0  0  0
    2.6722   -0.9378    3.3759 O   0  0  0  0  0  0  0  0  0  0  0  0
    0.8260    3.8958    0.4815 S   0  0  0  0  0  0  0  0  0  0  0  0
   -0.7736    4.0019    0.9634 N   0  0  0  0  0  0  0  0  0  0  0  0
   -1.0703    4.7260    2.1985 C   0  0  0  0  0  0  0  0  0  0  0  0
   -2.5530    4.6746    2.4914 C   0  0  0  0  0  0  0  0  0  0  0  0
   -3.1654    3.4358    2.7292 C   0  0  0  0  0  0  0  0  0  0  0  0
   -4.5427    3.3585    2.9391 C   0  0  0  0  0  0  0  0  0  0  0  0
   -5.3402    4.5121    2.8997 C   0  0  0  0  0  0  0  0  0  0  0  0
   -4.7219    5.7536    2.7056 C   0  0  0  0  0  0  0  0  0  0  0  0
   -3.3359    5.8316    2.5037 C   0  0  0  0  0  0  0  0  0  0  0  0
   -6.8290    4.4584    3.0695 C   0  0  0  0  0  0  0  0  0  0  0  0
   -7.3935    3.2000    3.0405 N   0  0  0  0  0  0  0  0  0  0  0  0
   -7.4828    5.4842    3.2041 O   0  0  0  0  0  0  0  0  0  0  0  0
   -8.8262    2.9781    3.1424 C   0  0  0  0  0  0  0  0  0  0  0  0
   -9.1117    1.4836    3.2548 C   0  0  0  0  0  0  0  0  0  0  0  0
  -10.5799    1.1888    3.3363 C   0  0  0  0  0  0  0  0  0  0  0  0
  -11.2217    1.1214    4.5694 C   0  0  0  0  0  0  0  0  0  0  0  0
  -12.5834    0.8386    4.6000 C   0  0  0  0  0  0  0  0  0  0  0  0
  -13.2631    0.6373    3.4055 C   0  0  0  0  0  0  0  0  0  0  0  0
  -12.5499    0.7276    2.2228 C   0  0  0  0  0  0  0  0  0  0  0  0
  -11.2282    0.9992    2.1627 N   0  0  0  0  0  0  0  0  0  0  0  0
    3.7079   -0.8616    4.3487 C   0  0  0  0  0  0  0  0  0  0  0  0
    1.5164    5.0676    0.9723 O   0  0  0  0  0  0  0  0  0  0  0  0
    0.8088    3.5481   -0.9212 O   0  0  0  0  0  0  0  0  0  0  0  0
    3.6874    1.6229    3.7181 H   0  0  0  0  0  0  0  0  0  0  0  0
    0.8586   -0.8685    1.6178 H   0  0  0  0  0  0  0  0  0  0  0  0
    0.0463    1.1152    0.3714 H   0  0  0  0  0  0  0  0  0  0  0  0
    2.8870    3.5782    2.4952 H   0  0  0  0  0  0  0  0  0  0  0  0
   -1.4099    4.1340    0.1782 H   0  0  0  0  0  0  0  0  0  0  0  0
   -0.5280    4.2850    3.0426 H   0  0  0  0  0  0  0  0  0  0  0  0
   -0.7592    5.7701    2.0967 H   0  0  0  0  0  0  0  0  0  0  0  0
   -2.5716    2.5242    2.7353 H   0  0  0  0  0  0  0  0  0  0  0  0
   -4.9593    2.3783    3.1383 H   0  0  0  0  0  0  0  0  0  0  0  0
   -5.3169    6.6665    2.7032 H   0  0  0  0  0  0  0  0  0  0  0  0
   -2.8836    6.8103    2.3494 H   0  0  0  0  0  0  0  0  0  0  0  0
   -6.8604    2.4514    2.6277 H   0  0  0  0  0  0  0  0  0  0  0  0
   -9.2002    3.5236    4.0173 H   0  0  0  0  0  0  0  0  0  0  0  0
   -9.2996    3.4114    2.2542 H   0  0  0  0  0  0  0  0  0  0  0  0
   -8.6950    0.9636    2.3815 H   0  0  0  0  0  0  0  0  0  0  0  0
   -8.5932    1.0579    4.1241 H   0  0  0  0  0  0  0  0  0  0  0  0
  -10.6743    1.2798    5.4928 H   0  0  0  0  0  0  0  0  0  0  0  0
  -13.1083    0.7756    5.5489 H   0  0  0  0  0  0  0  0  0  0  0  0
  -14.3241    0.4154    3.3953 H   0  0  0  0  0  0  0  0  0  0  0  0
  -13.0348    0.5798    1.2630 H   0  0  0  0  0  0  0  0  0  0  0  0
    4.6466   -0.5198    3.8996 H   0  0  0  0  0  0  0  0  0  0  0  0
    3.4141   -0.2204    5.1865 H   0  0  0  0  0  0  0  0  0  0  0  0
    3.8747   -1.8684    4.7424 H   0  0  0  0  0  0  0  0  0  0  0  0
  1  2  2  0  0  0  0
  1 31  1  0  0  0  0
  2  3  1  0  0  0  0
  2  7  1  0  0  0  0
  3  4  2  0  0  0  0
  3 32  1  0  0  0  0
  4  5  1  0  0  0  0
  4 33  1  0  0  0  0
  5  6  2  0  0  0  0
  5  8  1  0  0  0  0
  6  1  1  0  0  0  0
  6 34  1  0  0  0  0
  7 28  1  0  0  0  0
  8  9  1  0  0  0  0
  8 29  2  0  0  0  0
  8 30  2  0  0  0  0
  9 10  1  0  0  0  0
  9 35  1  0  0  0  0
 10 11  1  0  0  0  0
 10 36  1  0  0  0  0
 10 37  1  0  0  0  0
 11 12  2  0  0  0  0
 12 13  1  0  0  0  0
 12 38  1  0  0  0  0
 13 14  2  0  0  0  0
 13 39  1  0  0  0  0
 14 15  1  0  0  0  0
 14 17  1  0  0  0  0
 15 16  2  0  0  0  0
 15 40  1  0  0  0  0
 16 11  1  0  0  0  0
 16 41  1  0  0  0  0
 17 18  1  0  0  0  0
 17 19  2  0  0  0  0
 18 20  1  0  0  0  0
 18 42  1  0  0  0  0
 20 21  1  0  0  0  0
 20 43  1  0  0  0  0
 20 44  1  0  0  0  0
 21 22  1  0  0  0  0
 21 45  1  0  0  0  0
 21 46  1  0  0  0  0
 22 23  2  0  0  0  0
 23 24  1  0  0  0  0
 23 47  1  0  0  0  0
 24 25  2  0  0  0  0
 24 48  1  0  0  0  0
 25 26  1  0  0  0  0
 25 49  1  0  0  0  0
 26 27  2  0  0  0  0
 26 50  1  0  0  0  0
 27 22  1  0  0  0  0
 28 51  1  0  0  0  0
 28 52  1  0  0  0  0
 28 53  1  0  0  0  0
M  END
>  <Mol_ID>
4129

>  <Formula>
C22H22ClN3O4S

>  <MolWeight>
459.94578

>  <Cat>
S8379

>  <Name>
YU238259

>  <Synonyms>
N/A

>  <Target>
DNA-PK

>  <Form>
free base

>  <CAS>
1943733-16-1

>  <URL>
http://selleckchem.com/products/yu238259.html

$$$$
