Z-FA-FMK.cdx
 OpenBabel08302519583D

 51 52  0  0  0  0  0  0  0  0999 V2000
    1.1544   -0.0490    0.1088 C   0  0  1  0  0  0  0  0  0  0  0  0
    0.7499    0.5383   -1.2617 C   0  0  0  0  0  0  0  0  0  0  0  0
    0.4211    0.7385    1.2356 C   0  0  0  0  0  0  0  0  0  0  0  0
    0.8493   -1.4847    0.1936 N   0  0  0  0  0  0  0  0  0  0  0  0
    1.3997   -0.0314   -2.5077 C   0  0  0  0  0  0  0  0  0  0  0  0
   -0.9701    0.7375    1.2354 N   0  0  0  0  0  0  0  0  0  0  0  0
    1.0528    1.4030    2.0590 O   0  0  0  0  0  0  0  0  0  0  0  0
    1.5954   -2.3812    0.9076 C   0  0  0  0  0  0  0  0  0  0  0  0
    0.6434   -0.0948   -3.6922 C   0  0  0  0  0  0  0  0  0  0  0  0
    2.7498   -0.4065   -2.5649 C   0  0  0  0  0  0  0  0  0  0  0  0
   -1.7156    1.4287    2.3068 C   0  0  3  0  0  0  0  0  0  0  0  0
    1.0833   -3.6327    0.7323 O   0  0  0  0  0  0  0  0  0  0  0  0
    2.5712   -2.1068    1.5727 O   0  0  0  0  0  0  0  0  0  0  0  0
    1.2129   -0.5320   -4.8906 C   0  0  0  0  0  0  0  0  0  0  0  0
    3.3198   -0.8436   -3.7676 C   0  0  0  0  0  0  0  0  0  0  0  0
   -3.1280    1.9063    1.9359 C   0  0  0  0  0  0  0  0  0  0  0  0
   -1.7843    0.5638    3.5616 C   0  0  0  0  0  0  0  0  0  0  0  0
    1.7884   -4.7096    1.3744 C   0  0  0  0  0  0  0  0  0  0  0  0
    2.5535   -0.9035   -4.9288 C   0  0  0  0  0  0  0  0  0  0  0  0
   -3.6741    3.1025    2.7165 C   0  0  0  0  0  0  0  0  0  0  0  0
   -3.8105    1.3454    1.0724 O   0  0  0  0  0  0  0  0  0  0  0  0
    0.8719   -5.5172    2.2711 C   0  0  0  0  0  0  0  0  0  0  0  0
   -2.7912    3.5729    3.6346 F   0  0  0  0  0  0  0  0  0  0  0  0
    0.1022   -6.5879    1.7921 C   0  0  0  0  0  0  0  0  0  0  0  0
    0.8431   -5.2398    3.6466 C   0  0  0  0  0  0  0  0  0  0  0  0
   -0.5978   -7.4115    2.6840 C   0  0  0  0  0  0  0  0  0  0  0  0
    0.1714   -6.0807    4.5330 C   0  0  0  0  0  0  0  0  0  0  0  0
   -0.5288   -7.1864    4.0582 C   0  0  0  0  0  0  0  0  0  0  0  0
    2.2309    0.1001    0.2779 H   0  0  0  0  0  0  0  0  0  0  0  0
   -0.3345    0.4057   -1.3704 H   0  0  0  0  0  0  0  0  0  0  0  0
    0.9248    1.6233   -1.2699 H   0  0  0  0  0  0  0  0  0  0  0  0
    0.0907   -1.8645   -0.3464 H   0  0  0  0  0  0  0  0  0  0  0  0
   -1.4823    0.1440    0.5909 H   0  0  0  0  0  0  0  0  0  0  0  0
   -0.4010    0.2102   -3.6940 H   0  0  0  0  0  0  0  0  0  0  0  0
    3.3856   -0.3570   -1.6845 H   0  0  0  0  0  0  0  0  0  0  0  0
   -1.1507    2.3374    2.5299 H   0  0  0  0  0  0  0  0  0  0  0  0
    0.6126   -0.5696   -5.7958 H   0  0  0  0  0  0  0  0  0  0  0  0
    4.3686   -1.1289   -3.7982 H   0  0  0  0  0  0  0  0  0  0  0  0
   -0.7795    0.3955    3.9619 H   0  0  0  0  0  0  0  0  0  0  0  0
   -2.3814    1.0412    4.3453 H   0  0  0  0  0  0  0  0  0  0  0  0
   -2.2283   -0.4173    3.3580 H   0  0  0  0  0  0  0  0  0  0  0  0
    2.2018   -5.3684    0.5999 H   0  0  0  0  0  0  0  0  0  0  0  0
    2.6509   -4.3721    1.9618 H   0  0  0  0  0  0  0  0  0  0  0  0
    2.9995   -1.2320   -5.8651 H   0  0  0  0  0  0  0  0  0  0  0  0
   -3.8992    3.9215    2.0244 H   0  0  0  0  0  0  0  0  0  0  0  0
   -4.5859    2.8212    3.2558 H   0  0  0  0  0  0  0  0  0  0  0  0
    0.0537   -6.8070    0.7275 H   0  0  0  0  0  0  0  0  0  0  0  0
    1.3732   -4.3726    4.0368 H   0  0  0  0  0  0  0  0  0  0  0  0
   -1.1838   -8.2478    2.3095 H   0  0  0  0  0  0  0  0  0  0  0  0
    0.2120   -5.8832    5.6044 H   0  0  0  0  0  0  0  0  0  0  0  0
   -1.0192   -7.8616    4.7526 H   0  0  0  0  0  0  0  0  0  0  0  0
  1  4  1  0  0  0  0
  1 29  1  1  0  0  0
  1  3  1  0  0  0  0
  1  2  1  0  0  0  0
  2  5  1  0  0  0  0
  2 30  1  0  0  0  0
  2 31  1  0  0  0  0
  3  6  1  0  0  0  0
  3  7  2  0  0  0  0
  4  8  1  0  0  0  0
  4 32  1  0  0  0  0
  5  9  2  0  0  0  0
  5 10  1  0  0  0  0
  6 11  1  0  0  0  0
  6 33  1  0  0  0  0
  8 12  1  0  0  0  0
  8 13  2  0  0  0  0
  9 14  1  0  0  0  0
  9 34  1  0  0  0  0
 10 15  2  0  0  0  0
 10 35  1  0  0  0  0
 11 16  1  0  0  0  0
 11 17  1  0  0  0  0
 11 36  1  0  0  0  0
 12 18  1  0  0  0  0
 14 19  2  0  0  0  0
 14 37  1  0  0  0  0
 15 19  1  0  0  0  0
 15 38  1  0  0  0  0
 16 20  1  0  0  0  0
 16 21  2  0  0  0  0
 17 39  1  0  0  0  0
 17 40  1  0  0  0  0
 17 41  1  0  0  0  0
 18 22  1  0  0  0  0
 18 42  1  0  0  0  0
 18 43  1  0  0  0  0
 19 44  1  0  0  0  0
 20 23  1  0  0  0  0
 20 45  1  0  0  0  0
 20 46  1  0  0  0  0
 22 24  2  0  0  0  0
 22 25  1  0  0  0  0
 24 26  1  0  0  0  0
 24 47  1  0  0  0  0
 25 27  2  0  0  0  0
 25 48  1  0  0  0  0
 26 28  2  0  0  0  0
 26 49  1  0  0  0  0
 27 28  1  0  0  0  0
 27 50  1  0  0  0  0
 28 51  1  0  0  0  0
M  END
>  <Mol_ID>
2406

>  <Formula>
C21H23FN2O4

>  <MolWeight>
386.4167232

>  <Cat>
S7391

>  <Name>
Z-FA-FMK

>  <Synonyms>
(1S)-Z-FA-FMK

>  <Target>
Cysteine Protease

>  <Form>
free base

>  <CAS>
197855-65-5

>  <URL>
http://selleckchem.com/products/z-fa-fmk.html

$$$$
