Z-Guggulsterone
 OpenBabel08302521412D

 51 54  0  0  0  0  0  0  0  0999 V2000
   11.0917    3.6372    0.0000 O   0  0  0  0  0  0  0  0  0  0  0  0
    0.0000    0.0641    0.0000 O   0  0  0  0  0  0  0  0  0  0  0  0
    6.3378    2.2373    0.0000 C   0  0  2  0  0  0  0  0  0  0  0  0
    5.1253    2.9373    0.0000 C   0  0  1  0  0  0  0  0  0  0  0  0
    7.5501    2.9373    0.0000 C   0  0  1  0  0  0  0  0  0  0  0  0
    7.5501    4.3372    0.0000 C   0  0  2  0  0  0  0  0  0  0  0  0
    3.8513    2.2278    0.0000 C   0  0  2  0  0  0  0  0  0  0  0  0
    5.1253    4.3372    0.0000 C   0  0  0  0  0  0  0  0  0  0  0  0
    6.3378    5.0372    0.0000 C   0  0  0  0  0  0  0  0  0  0  0  0
    6.3602    0.7792    0.0000 C   0  0  0  0  0  0  0  0  0  0  0  0
    8.8748    2.5107    0.0000 C   0  0  0  0  0  0  0  0  0  0  0  0
    3.8401    0.7696    0.0000 C   0  0  0  0  0  0  0  0  0  0  0  0
    5.1030    0.0405    0.0000 C   0  0  0  0  0  0  0  0  0  0  0  0
    8.8748    4.7639    0.0000 C   0  0  0  0  0  0  0  0  0  0  0  0
    2.5538    3.0175    0.0000 C   0  0  0  0  0  0  0  0  0  0  0  0
    7.5501    5.7372    0.0000 C   0  0  0  0  0  0  0  0  0  0  0  0
    3.8621    3.6277    0.0000 C   0  0  0  0  0  0  0  0  0  0  0  0
    9.6918    3.6372    0.0000 C   0  0  0  0  0  0  0  0  0  0  0  0
    1.2268    2.2783    0.0000 C   0  0  0  0  0  0  0  0  0  0  0  0
    2.5306    0.0000    0.0000 C   0  0  0  0  0  0  0  0  0  0  0  0
    9.3097    6.0946    0.0000 C   0  0  0  0  0  0  0  0  0  0  0  0
    1.2152    0.7593    0.0000 C   0  0  0  0  0  0  0  0  0  0  0  0
   10.6796    6.3833    0.0000 C   0  0  0  0  0  0  0  0  0  0  0  0
    5.4153    1.6952    0.0000 H   0  0  0  0  0  0  0  0  0  0  0  0
    6.0519    3.4723    0.0000 H   0  0  0  0  0  0  0  0  0  0  0  0
    7.6634    1.8733    0.0000 H   0  0  0  0  0  0  0  0  0  0  0  0
    4.1987    4.8722    0.0000 H   0  0  0  0  0  0  0  0  0  0  0  0
    5.1253    5.4072    0.0000 H   0  0  0  0  0  0  0  0  0  0  0  0
    6.3378    6.1072    0.0000 H   0  0  0  0  0  0  0  0  0  0  0  0
    5.4112    5.5722    0.0000 H   0  0  0  0  0  0  0  0  0  0  0  0
    7.2929    0.2549    0.0000 H   0  0  0  0  0  0  0  0  0  0  0  0
    6.3704   -0.2908    0.0000 H   0  0  0  0  0  0  0  0  0  0  0  0
    9.2072    1.4936    0.0000 H   0  0  0  0  0  0  0  0  0  0  0  0
    9.9318    2.3447    0.0000 H   0  0  0  0  0  0  0  0  0  0  0  0
    5.1071   -1.0295    0.0000 H   0  0  0  0  0  0  0  0  0  0  0  0
    4.1774   -0.4963    0.0000 H   0  0  0  0  0  0  0  0  0  0  0  0
    2.5744    4.0873    0.0000 H   0  0  0  0  0  0  0  0  0  0  0  0
    1.6366    3.5685    0.0000 H   0  0  0  0  0  0  0  0  0  0  0  0
    8.4767    6.2722    0.0000 H   0  0  0  0  0  0  0  0  0  0  0  0
    6.6235    6.2722    0.0000 H   0  0  0  0  0  0  0  0  0  0  0  0
    7.5501    6.8072    0.0000 H   0  0  0  0  0  0  0  0  0  0  0  0
    4.7928    4.1555    0.0000 H   0  0  0  0  0  0  0  0  0  0  0  0
    2.9396    4.1698    0.0000 H   0  0  0  0  0  0  0  0  0  0  0  0
    3.8704    4.6977    0.0000 H   0  0  0  0  0  0  0  0  0  0  0  0
    0.3064    2.8239    0.0000 H   0  0  0  0  0  0  0  0  0  0  0  0
    0.2951    1.7522    0.0000 H   0  0  0  0  0  0  0  0  0  0  0  0
    2.5346   -1.0320    0.0000 H   0  0  0  0  0  0  0  0  0  0  0  0
    8.6205    6.8627    0.0000 H   0  0  0  0  0  0  0  0  0  0  0  0
   11.3942    5.5869    0.0000 H   0  0  0  0  0  0  0  0  0  0  0  0
   11.0120    7.4004    0.0000 H   0  0  0  0  0  0  0  0  0  0  0  0
   11.7266    6.6040    0.0000 H   0  0  0  0  0  0  0  0  0  0  0  0
  1 18  2  0  0  0  0
  2 22  2  0  0  0  0
  3  4  1  0  0  0  0
  3  5  1  0  0  0  0
  3 10  1  0  0  0  0
  3 24  1  1  0  0  0
  4  7  1  0  0  0  0
  4  8  1  0  0  0  0
  4 25  1  6  0  0  0
  5  6  1  0  0  0  0
  5 11  1  0  0  0  0
  5 26  1  6  0  0  0
  6  9  1  0  0  0  0
  6 14  1  0  0  0  0
  6 16  1  1  0  0  0
  7 12  1  0  0  0  0
  7 15  1  0  0  0  0
  7 17  1  1  0  0  0
  8  9  1  0  0  0  0
  8 27  1  0  0  0  0
  8 28  1  0  0  0  0
  9 29  1  0  0  0  0
  9 30  1  0  0  0  0
 10 13  1  0  0  0  0
 10 31  1  0  0  0  0
 10 32  1  0  0  0  0
 11 18  1  0  0  0  0
 11 33  1  0  0  0  0
 11 34  1  0  0  0  0
 12 13  1  0  0  0  0
 12 20  2  0  0  0  0
 13 35  1  0  0  0  0
 13 36  1  0  0  0  0
 14 18  1  0  0  0  0
 14 21  2  0  0  0  0
 15 19  1  0  0  0  0
 15 37  1  0  0  0  0
 15 38  1  0  0  0  0
 16 39  1  0  0  0  0
 16 40  1  0  0  0  0
 16 41  1  0  0  0  0
 17 42  1  0  0  0  0
 17 43  1  0  0  0  0
 17 44  1  0  0  0  0
 19 22  1  0  0  0  0
 19 45  1  0  0  0  0
 19 46  1  0  0  0  0
 20 22  1  0  0  0  0
 20 47  1  0  0  0  0
 21 23  1  0  0  0  0
 21 48  1  0  0  0  0
 23 49  1  0  0  0  0
 23 50  1  0  0  0  0
 23 51  1  0  0  0  0
M  END
>  <Mol_ID>
6020

>  <Formula>
C21H28O2

>  <MolWeight>
312.44582

>  <Cat>
S6812

>  <Name>
Z-Guggulsterone

>  <Synonyms>
(Z)-Guggulsterone

>  <Target>
Apoptosis related,Immunology & Inflammation related

>  <Form>
Free Base

>  <CAS>
39025-23-5

>  <URL>
http://www.selleckchem.com/products/z-guggulsterone.html

$$$$
