Z-JIB-04 (NSC 693627)
 OpenBabel08302521243D

 35 37  0  0  0  0  0  0  0  0999 V2000
    1.1442    0.2949    0.1126 N   0  0  0  0  0  0  0  0  0  0  0  0
    0.4943   -0.2162    1.1965 N   0  0  0  0  0  0  0  0  0  0  0  0
    2.9179   -0.7044    2.2461 N   0  0  0  0  0  0  0  0  0  0  0  0
   -0.8745    0.3066    3.0315 N   0  0  0  0  0  0  0  0  0  0  0  0
    3.0916    0.5616   -1.2496 C   0  0  0  0  0  0  0  0  0  0  0  0
    2.4162    0.0151   -0.0248 C   0  0  0  0  0  0  0  0  0  0  0  0
    3.2449   -0.8111    0.9308 C   0  0  0  0  0  0  0  0  0  0  0  0
    4.4179    1.0166   -1.2160 C   0  0  0  0  0  0  0  0  0  0  0  0
    2.3795    0.6072   -2.4551 C   0  0  0  0  0  0  0  0  0  0  0  0
    4.2887   -1.6164    0.4808 C   0  0  0  0  0  0  0  0  0  0  0  0
    5.0450    1.4389   -2.3899 C   0  0  0  0  0  0  0  0  0  0  0  0
    3.0049    1.0476   -3.6235 C   0  0  0  0  0  0  0  0  0  0  0  0
    4.3408    1.4469   -3.5931 C   0  0  0  0  0  0  0  0  0  0  0  0
   -0.6251    0.4615    1.7099 C   0  0  0  0  0  0  0  0  0  0  0  0
    5.0577   -2.3007    1.4186 C   0  0  0  0  0  0  0  0  0  0  0  0
    4.7473   -2.1854    2.7705 C   0  0  0  0  0  0  0  0  0  0  0  0
    3.6735   -1.3924    3.1307 C   0  0  0  0  0  0  0  0  0  0  0  0
   -1.4479    1.2391    0.8979 C   0  0  0  0  0  0  0  0  0  0  0  0
   -2.5257    1.9183    1.4625 C   0  0  0  0  0  0  0  0  0  0  0  0
   -2.7695    1.7886    2.8229 C   0  0  0  0  0  0  0  0  0  0  0  0
   -1.9289    0.9697    3.5550 C   0  0  0  0  0  0  0  0  0  0  0  0
    1.0470   -0.5567    1.9916 H   0  0  0  0  0  0  0  0  0  0  0  0
    4.9774    1.0456   -0.2843 H   0  0  0  0  0  0  0  0  0  0  0  0
    1.3392    0.2904   -2.4892 H   0  0  0  0  0  0  0  0  0  0  0  0
    4.5174   -1.7155   -0.5745 H   0  0  0  0  0  0  0  0  0  0  0  0
    6.0824    1.7634   -2.3656 H   0  0  0  0  0  0  0  0  0  0  0  0
    2.4496    1.0743   -4.5577 H   0  0  0  0  0  0  0  0  0  0  0  0
    4.8303    1.7751   -4.5071 H   0  0  0  0  0  0  0  0  0  0  0  0
    5.8990   -2.9103    1.0981 H   0  0  0  0  0  0  0  0  0  0  0  0
    5.3301   -2.7057    3.5229 H   0  0  0  0  0  0  0  0  0  0  0  0
    3.3818   -1.2835    4.1721 H   0  0  0  0  0  0  0  0  0  0  0  0
   -1.2365    1.3277   -0.1623 H   0  0  0  0  0  0  0  0  0  0  0  0
   -3.1595    2.5474    0.8458 H   0  0  0  0  0  0  0  0  0  0  0  0
   -3.5909    2.3097    3.3002 H   0  0  0  0  0  0  0  0  0  0  0  0
   -2.0808    0.8219    4.6200 H   0  0  0  0  0  0  0  0  0  0  0  0
  1  2  1  0  0  0  0
  1  6  2  0  0  0  0
  2 14  1  0  0  0  0
  2 22  1  0  0  0  0
  3  7  2  0  0  0  0
  3 17  1  0  0  0  0
  4 14  2  0  0  0  0
  4 21  1  0  0  0  0
  5  6  1  0  0  0  0
  5  8  2  0  0  0  0
  5  9  1  0  0  0  0
  6  7  1  0  0  0  0
  7 10  1  0  0  0  0
  8 11  1  0  0  0  0
  8 23  1  0  0  0  0
  9 12  2  0  0  0  0
  9 24  1  0  0  0  0
 10 15  2  0  0  0  0
 10 25  1  0  0  0  0
 11 13  2  0  0  0  0
 11 26  1  0  0  0  0
 12 13  1  0  0  0  0
 12 27  1  0  0  0  0
 13 28  1  0  0  0  0
 14 18  1  0  0  0  0
 15 16  1  0  0  0  0
 15 29  1  0  0  0  0
 16 17  2  0  0  0  0
 16 30  1  0  0  0  0
 17 31  1  0  0  0  0
 18 19  2  0  0  0  0
 18 32  1  0  0  0  0
 19 20  1  0  0  0  0
 19 33  1  0  0  0  0
 20 21  2  0  0  0  0
 20 34  1  0  0  0  0
 21 35  1  0  0  0  0
M  END
>  <Mol_ID>
5052

>  <Formula>
C17H13ClN4

>  <MolWeight>
308.76492

>  <Cat>
S0201

>  <Name>
Z-JIB-04 (NSC 693627)

>  <Synonyms>
JIB-04 Z-isomer, (Z)-JIB-04

>  <Target>
Histone Demethylase,JMJD

>  <Form>
free base

>  <CAS>
199596-24-2

>  <URL>
http://www.selleckchem.com/products/z-jib-04-nsc-693627.html

$$$$
