Z-VAD-FMK
 OpenBabel08302521353D

 63 63  0  0  0  0  0  0  0  0999 V2000
    4.1588   -3.5523    2.6921 C   0  0  1  0  0  0  0  0  0  0  0  0
    3.1235   -2.9262    3.5156 N   0  0  0  0  0  0  0  0  0  0  0  0
    5.2821   -4.0926    3.5711 C   0  0  0  0  0  0  0  0  0  0  0  0
    3.4209   -4.6721    1.9511 C   0  0  0  0  0  0  0  0  0  0  0  0
    3.0954   -1.5674    3.7616 C   0  0  0  0  0  0  0  0  0  0  0  0
    6.3218   -4.7854    2.7378 C   0  0  0  0  0  0  0  0  0  0  0  0
    3.4590   -4.6627    0.4394 C   0  0  0  0  0  0  0  0  0  0  0  0
    2.7968   -5.5368    2.5756 O   0  0  0  0  0  0  0  0  0  0  0  0
    1.7037   -1.0621    4.2259 C   0  0  1  0  0  0  0  0  0  0  0  0
    4.0639   -0.8453    3.5440 O   0  0  0  0  0  0  0  0  0  0  0  0
    7.2967   -5.3033    3.5335 O   0  0  0  0  0  0  0  0  0  0  0  0
    6.2781   -4.8977    1.5210 O   0  0  0  0  0  0  0  0  0  0  0  0
    3.4881   -3.3989   -0.0668 F   0  0  0  0  0  0  0  0  0  0  0  0
    1.6824    0.3743    4.4639 N   0  0  0  0  0  0  0  0  0  0  0  0
    0.6927   -1.4292    3.1363 C   0  0  0  0  0  0  0  0  0  0  0  0
    8.2938   -6.0303    2.8139 C   0  0  0  0  0  0  0  0  0  0  0  0
    2.2800    0.9256    5.5802 C   0  0  0  0  0  0  0  0  0  0  0  0
    2.0842    2.4564    5.6969 C   0  0  1  0  0  0  0  0  0  0  0  0
    2.8451    0.2363    6.4237 O   0  0  0  0  0  0  0  0  0  0  0  0
    0.6926    2.7160    6.0857 N   0  0  0  0  0  0  0  0  0  0  0  0
    3.0818    3.1904    6.6283 C   0  0  0  0  0  0  0  0  0  0  0  0
   -0.3124    2.8777    5.1772 C   0  0  0  0  0  0  0  0  0  0  0  0
    3.1033    2.7162    8.0850 C   0  0  0  0  0  0  0  0  0  0  0  0
    4.5068    3.1618    6.0611 C   0  0  0  0  0  0  0  0  0  0  0  0
   -1.4946    3.0170    5.8212 O   0  0  0  0  0  0  0  0  0  0  0  0
   -0.1493    2.8856    3.9660 O   0  0  0  0  0  0  0  0  0  0  0  0
   -2.6327    3.3675    5.0111 C   0  0  0  0  0  0  0  0  0  0  0  0
   -3.8392    2.4927    5.2876 C   0  0  0  0  0  0  0  0  0  0  0  0
   -4.0083    1.8195    6.5059 C   0  0  0  0  0  0  0  0  0  0  0  0
   -4.8742    2.4265    4.3372 C   0  0  0  0  0  0  0  0  0  0  0  0
   -5.1819    1.1086    6.7698 C   0  0  0  0  0  0  0  0  0  0  0  0
   -6.0458    1.7126    4.6029 C   0  0  0  0  0  0  0  0  0  0  0  0
   -6.1976    1.0482    5.8172 C   0  0  0  0  0  0  0  0  0  0  0  0
    4.5403   -2.8162    1.9781 H   0  0  0  0  0  0  0  0  0  0  0  0
    2.3632   -3.5174    3.8398 H   0  0  0  0  0  0  0  0  0  0  0  0
    5.7626   -3.2681    4.1101 H   0  0  0  0  0  0  0  0  0  0  0  0
    4.8895   -4.8071    4.3041 H   0  0  0  0  0  0  0  0  0  0  0  0
    4.3292   -5.2075    0.0741 H   0  0  0  0  0  0  0  0  0  0  0  0
    2.5525   -5.1429    0.0604 H   0  0  0  0  0  0  0  0  0  0  0  0
    1.4473   -1.5629    5.1672 H   0  0  0  0  0  0  0  0  0  0  0  0
    1.1326    0.9802    3.8597 H   0  0  0  0  0  0  0  0  0  0  0  0
    0.4726   -2.5033    3.1559 H   0  0  0  0  0  0  0  0  0  0  0  0
   -0.2504   -0.8909    3.2506 H   0  0  0  0  0  0  0  0  0  0  0  0
    1.0956   -1.2042    2.1400 H   0  0  0  0  0  0  0  0  0  0  0  0
    7.8482   -6.9062    2.3311 H   0  0  0  0  0  0  0  0  0  0  0  0
    8.7808   -5.3876    2.0735 H   0  0  0  0  0  0  0  0  0  0  0  0
    9.0474   -6.3724    3.5274 H   0  0  0  0  0  0  0  0  0  0  0  0
    2.2212    2.8697    4.6879 H   0  0  0  0  0  0  0  0  0  0  0  0
    0.4021    2.5538    7.0398 H   0  0  0  0  0  0  0  0  0  0  0  0
    2.7717    4.2450    6.6485 H   0  0  0  0  0  0  0  0  0  0  0  0
    3.5332    1.7161    8.1909 H   0  0  0  0  0  0  0  0  0  0  0  0
    3.7252    3.3870    8.6893 H   0  0  0  0  0  0  0  0  0  0  0  0
    2.1032    2.7090    8.5255 H   0  0  0  0  0  0  0  0  0  0  0  0
    4.5131    3.3174    4.9776 H   0  0  0  0  0  0  0  0  0  0  0  0
    5.1077    3.9612    6.5103 H   0  0  0  0  0  0  0  0  0  0  0  0
    5.0093    2.2121    6.2723 H   0  0  0  0  0  0  0  0  0  0  0  0
   -2.9066    4.3945    5.2795 H   0  0  0  0  0  0  0  0  0  0  0  0
   -2.4045    3.3534    3.9387 H   0  0  0  0  0  0  0  0  0  0  0  0
   -3.2380    1.8618    7.2706 H   0  0  0  0  0  0  0  0  0  0  0  0
   -4.7858    2.9569    3.3900 H   0  0  0  0  0  0  0  0  0  0  0  0
   -5.3015    0.5913    7.7157 H   0  0  0  0  0  0  0  0  0  0  0  0
   -6.8448    1.6814    3.8654 H   0  0  0  0  0  0  0  0  0  0  0  0
   -7.1140    0.5085    6.0329 H   0  0  0  0  0  0  0  0  0  0  0  0
  1  4  1  0  0  0  0
  1 34  1  6  0  0  0
  1  3  1  0  0  0  0
  1  2  1  0  0  0  0
  2  5  1  0  0  0  0
  2 35  1  0  0  0  0
  3  6  1  0  0  0  0
  3 36  1  0  0  0  0
  3 37  1  0  0  0  0
  4  7  1  0  0  0  0
  4  8  2  0  0  0  0
  5  9  1  0  0  0  0
  5 10  2  0  0  0  0
  6 11  1  0  0  0  0
  6 12  2  0  0  0  0
  7 13  1  0  0  0  0
  7 38  1  0  0  0  0
  7 39  1  0  0  0  0
  9 14  1  0  0  0  0
  9 15  1  0  0  0  0
  9 40  1  1  0  0  0
 11 16  1  0  0  0  0
 14 17  1  0  0  0  0
 14 41  1  0  0  0  0
 15 42  1  0  0  0  0
 15 43  1  0  0  0  0
 15 44  1  0  0  0  0
 16 45  1  0  0  0  0
 16 46  1  0  0  0  0
 16 47  1  0  0  0  0
 17 19  2  0  0  0  0
 18 17  1  0  0  0  0
 18 20  1  0  0  0  0
 18 21  1  0  0  0  0
 18 48  1  6  0  0  0
 20 22  1  0  0  0  0
 20 49  1  0  0  0  0
 21 23  1  0  0  0  0
 21 24  1  0  0  0  0
 21 50  1  0  0  0  0
 22 25  1  0  0  0  0
 22 26  2  0  0  0  0
 23 51  1  0  0  0  0
 23 52  1  0  0  0  0
 23 53  1  0  0  0  0
 24 54  1  0  0  0  0
 24 55  1  0  0  0  0
 24 56  1  0  0  0  0
 25 27  1  0  0  0  0
 27 28  1  0  0  0  0
 27 57  1  0  0  0  0
 27 58  1  0  0  0  0
 28 29  2  0  0  0  0
 28 30  1  0  0  0  0
 29 31  1  0  0  0  0
 29 59  1  0  0  0  0
 30 32  2  0  0  0  0
 30 60  1  0  0  0  0
 31 33  2  0  0  0  0
 31 61  1  0  0  0  0
 32 33  1  0  0  0  0
 32 62  1  0  0  0  0
 33 63  1  0  0  0  0
M  END
>  <Mol_ID>
6717

>  <Formula>
C22H30FN3O7

>  <MolWeight>
467.4879032

>  <Cat>
S7023

>  <Name>
Z-VAD-FMK

>  <Synonyms>
Z-VAD(OMe)-FMK

>  <Target>
Caspase

>  <Form>
Free base

>  <CAS>
187389-52-2

>  <URL>
http://www.selleckchem.com/products/z-vad-fmk.html

$$$$
