Z-VAD(OH)-FMK (Caspase Inhibitor VI).cdx
 OpenBabel08302520413D

 60 60  0  0  0  0  0  0  0  0999 V2000
   -4.5230   11.6555   -0.1575 C   0  0  0  0  0  0  0  0  0  0  0  0
   -4.4757   10.9775   -1.3746 C   0  0  0  0  0  0  0  0  0  0  0  0
   -4.2908    9.5899   -1.4019 C   0  0  0  0  0  0  0  0  0  0  0  0
   -4.1493    8.8616   -0.2106 C   0  0  0  0  0  0  0  0  0  0  0  0
   -4.2120    9.5572    1.0075 C   0  0  0  0  0  0  0  0  0  0  0  0
   -4.3939   10.9440    1.0334 C   0  0  0  0  0  0  0  0  0  0  0  0
   -4.0059    7.3518   -0.2196 C   0  0  0  0  0  0  0  0  0  0  0  0
   -2.6254    6.9032   -0.1720 O   0  0  0  0  0  0  0  0  0  0  0  0
   -2.3650    5.9982    0.8120 C   0  0  0  0  0  0  0  0  0  0  0  0
   -1.1225    5.4385    0.8447 N   0  0  0  0  0  0  0  0  0  0  0  0
   -3.1837    5.6500    1.6683 O   0  0  0  0  0  0  0  0  0  0  0  0
    0.0825    5.5817    0.0035 C   0  0  2  0  0  0  0  0  0  0  0  0
    0.4318    4.1648   -0.5703 C   0  0  0  0  0  0  0  0  0  0  0  0
    1.2268    6.2012    0.8725 C   0  0  0  0  0  0  0  0  0  0  0  0
    1.8438    5.2836    1.9438 C   0  0  0  0  0  0  0  0  0  0  0  0
    2.3636    6.8006    0.0378 C   0  0  0  0  0  0  0  0  0  0  0  0
    0.1392    3.9752   -1.9052 N   0  0  0  0  0  0  0  0  0  0  0  0
    0.8243    3.2402    0.1422 O   0  0  0  0  0  0  0  0  0  0  0  0
    0.3766    2.7256   -2.6586 C   0  0  2  0  0  0  0  0  0  0  0  0
   -0.0315    2.9884   -4.1327 C   0  0  0  0  0  0  0  0  0  0  0  0
   -0.4466    1.5473   -2.1318 C   0  0  0  0  0  0  0  0  0  0  0  0
    0.1360    1.9441   -5.0183 N   0  0  0  0  0  0  0  0  0  0  0  0
   -0.5347    4.0589   -4.4883 O   0  0  0  0  0  0  0  0  0  0  0  0
   -0.5728    1.8984   -6.3076 C   0  0  2  0  0  0  0  0  0  0  0  0
   -0.0295    2.9985   -7.2389 C   0  0  0  0  0  0  0  0  0  0  0  0
   -2.0945    1.8828   -6.1435 C   0  0  0  0  0  0  0  0  0  0  0  0
   -2.5409    0.7408   -5.2818 C   0  0  0  0  0  0  0  0  0  0  0  0
   -1.0073    3.9745   -7.8518 C   0  0  0  0  0  0  0  0  0  0  0  0
    1.1843    3.1038   -7.4526 O   0  0  0  0  0  0  0  0  0  0  0  0
   -1.9459    3.3454   -8.6139 F   0  0  0  0  0  0  0  0  0  0  0  0
   -1.9937   -0.3424   -5.1665 O   0  0  0  0  0  0  0  0  0  0  0  0
   -3.6773    1.0205   -4.6173 O   0  0  0  0  0  0  0  0  0  0  0  0
   -4.6653   12.7331   -0.1368 H   0  0  0  0  0  0  0  0  0  0  0  0
   -4.5923   11.5316   -2.3029 H   0  0  0  0  0  0  0  0  0  0  0  0
   -4.2777    9.0818   -2.3633 H   0  0  0  0  0  0  0  0  0  0  0  0
   -4.1412    9.0169    1.9496 H   0  0  0  0  0  0  0  0  0  0  0  0
   -4.4432   11.4686    1.9846 H   0  0  0  0  0  0  0  0  0  0  0  0
   -4.6234    6.9561    0.5975 H   0  0  0  0  0  0  0  0  0  0  0  0
   -4.4561    6.9508   -1.1365 H   0  0  0  0  0  0  0  0  0  0  0  0
   -1.0393    4.7722    1.6048 H   0  0  0  0  0  0  0  0  0  0  0  0
   -0.1612    6.2597   -0.8213 H   0  0  0  0  0  0  0  0  0  0  0  0
    0.7706    7.0392    1.4166 H   0  0  0  0  0  0  0  0  0  0  0  0
    2.6183    4.6280    1.5271 H   0  0  0  0  0  0  0  0  0  0  0  0
    2.3326    5.8900    2.7168 H   0  0  0  0  0  0  0  0  0  0  0  0
    1.0994    4.6591    2.4440 H   0  0  0  0  0  0  0  0  0  0  0  0
    1.9885    7.3222   -0.8464 H   0  0  0  0  0  0  0  0  0  0  0  0
    2.9160    7.5318    0.6421 H   0  0  0  0  0  0  0  0  0  0  0  0
    3.0826    6.0407   -0.2866 H   0  0  0  0  0  0  0  0  0  0  0  0
   -0.1735    4.7631   -2.4612 H   0  0  0  0  0  0  0  0  0  0  0  0
    1.4485    2.4977   -2.6156 H   0  0  0  0  0  0  0  0  0  0  0  0
   -0.3075    0.6503   -2.7440 H   0  0  0  0  0  0  0  0  0  0  0  0
   -0.1719    1.2779   -1.1084 H   0  0  0  0  0  0  0  0  0  0  0  0
   -1.5172    1.7832   -2.1447 H   0  0  0  0  0  0  0  0  0  0  0  0
    0.5577    1.0764   -4.6998 H   0  0  0  0  0  0  0  0  0  0  0  0
   -0.2696    0.9530   -6.7778 H   0  0  0  0  0  0  0  0  0  0  0  0
   -2.4445    2.8183   -5.6939 H   0  0  0  0  0  0  0  0  0  0  0  0
   -2.5952    1.7625   -7.1091 H   0  0  0  0  0  0  0  0  0  0  0  0
   -1.5157    4.5412   -7.0681 H   0  0  0  0  0  0  0  0  0  0  0  0
   -0.4739    4.6758   -8.4985 H   0  0  0  0  0  0  0  0  0  0  0  0
   -3.8815    0.2136   -4.0993 H   0  0  0  0  0  0  0  0  0  0  0  0
  1  2  2  0  0  0  0
  1 33  1  0  0  0  0
  2  3  1  0  0  0  0
  2 34  1  0  0  0  0
  3  4  2  0  0  0  0
  3 35  1  0  0  0  0
  4  5  1  0  0  0  0
  4  7  1  0  0  0  0
  5  6  2  0  0  0  0
  5 36  1  0  0  0  0
  6  1  1  0  0  0  0
  6 37  1  0  0  0  0
  7  8  1  0  0  0  0
  7 38  1  0  0  0  0
  7 39  1  0  0  0  0
  8  9  1  0  0  0  0
  9 10  1  0  0  0  0
  9 11  2  0  0  0  0
 10 40  1  0  0  0  0
 12 14  1  0  0  0  0
 12 41  1  6  0  0  0
 12 13  1  0  0  0  0
 12 10  1  0  0  0  0
 13 17  1  0  0  0  0
 13 18  2  0  0  0  0
 14 15  1  0  0  0  0
 14 16  1  0  0  0  0
 14 42  1  0  0  0  0
 15 43  1  0  0  0  0
 15 44  1  0  0  0  0
 15 45  1  0  0  0  0
 16 46  1  0  0  0  0
 16 47  1  0  0  0  0
 16 48  1  0  0  0  0
 17 49  1  0  0  0  0
 19 21  1  0  0  0  0
 19 50  1  1  0  0  0
 19 20  1  0  0  0  0
 19 17  1  0  0  0  0
 20 22  1  0  0  0  0
 20 23  2  0  0  0  0
 21 51  1  0  0  0  0
 21 52  1  0  0  0  0
 21 53  1  0  0  0  0
 22 54  1  0  0  0  0
 24 26  1  0  0  0  0
 24 55  1  6  0  0  0
 24 25  1  0  0  0  0
 24 22  1  0  0  0  0
 25 28  1  0  0  0  0
 25 29  2  0  0  0  0
 26 27  1  0  0  0  0
 26 56  1  0  0  0  0
 26 57  1  0  0  0  0
 27 31  2  0  0  0  0
 27 32  1  0  0  0  0
 28 30  1  0  0  0  0
 28 58  1  0  0  0  0
 28 59  1  0  0  0  0
 32 60  1  0  0  0  0
M  END
>  <Mol_ID>
3912

>  <Formula>
C21H28FN3O7

>  <MolWeight>
453.4613232

>  <Cat>
S8102

>  <Name>
Z-VAD(OH)-FMK (Caspase Inhibitor VI)

>  <Synonyms>
N/A

>  <Target>
Caspase

>  <Form>
free base

>  <CAS>
161401-82-7

>  <URL>
http://selleckchem.com/products/z-vad(oh)-fmk.html

$$$$
