Zabedosertib
 OpenBabel08302521353D

 53 55  0  0  0  0  0  0  0  0999 V2000
    0.9494   -0.0444    0.0140 C   0  0  0  0  0  0  0  0  0  0  0  0
    0.4289    0.5779    1.3179 C   0  0  0  0  0  0  0  0  0  0  0  0
    0.3950    0.7186   -1.2015 C   0  0  0  0  0  0  0  0  0  0  0  0
    0.3949   -1.3662   -0.0394 O   0  0  0  0  0  0  0  0  0  0  0  0
    7.8303    2.4492   -0.1918 C   0  0  0  0  0  0  0  0  0  0  0  0
    8.6826    2.3594   -1.4402 C   0  0  0  0  0  0  0  0  0  0  0  0
    7.9818    3.1392   -2.8752 S   0  0  0  0  0  0  0  0  0  0  0  0
    6.5556    2.1798   -3.3387 C   0  0  0  0  0  0  0  0  0  0  0  0
    7.5436    4.4677   -2.5006 O   0  0  0  0  0  0  0  0  0  0  0  0
    8.9573    2.9700   -3.9408 O   0  0  0  0  0  0  0  0  0  0  0  0
    2.6150   -2.5366   -0.2052 N   0  0  0  0  0  0  0  0  0  0  0  0
    3.1769   -3.7985   -0.2962 C   0  0  0  0  0  0  0  0  0  0  0  0
    4.3136   -4.0612   -0.6802 O   0  0  0  0  0  0  0  0  0  0  0  0
   -1.1688   -5.5183    1.3811 C   0  0  0  0  0  0  0  0  0  0  0  0
   -1.6494   -4.2698    1.1249 F   0  0  0  0  0  0  0  0  0  0  0  0
   -1.9991   -6.3782    0.7190 F   0  0  0  0  0  0  0  0  0  0  0  0
   -1.3979   -5.7448    2.7080 F   0  0  0  0  0  0  0  0  0  0  0  0
    4.5369    1.2208   -0.0777 C   0  0  0  0  0  0  0  0  0  0  0  0
    5.2259    0.0068   -0.3655 C   0  0  0  0  0  0  0  0  0  0  0  0
    3.1415    1.2213    0.0710 C   0  0  0  0  0  0  0  0  0  0  0  0
    5.4291    2.2245   -0.0137 N   0  0  0  0  0  0  0  0  0  0  0  0
    4.6773   -1.2575   -0.5009 C   0  0  0  0  0  0  0  0  0  0  0  0
    6.5571    0.2998   -0.4681 C   0  0  0  0  0  0  0  0  0  0  0  0
    2.4970   -0.0625   -0.0499 C   0  0  0  0  0  0  0  0  0  0  0  0
    6.6275    1.6407   -0.2251 N   0  0  0  0  0  0  0  0  0  0  0  0
    3.2755   -1.2801   -0.2813 C   0  0  0  0  0  0  0  0  0  0  0  0
    2.3131   -4.9384    0.1528 C   0  0  0  0  0  0  0  0  0  0  0  0
    1.0303   -4.6743    0.5164 N   0  0  0  0  0  0  0  0  0  0  0  0
    2.8914   -6.2031    0.2414 C   0  0  0  0  0  0  0  0  0  0  0  0
    0.2933   -5.7230    0.9986 C   0  0  0  0  0  0  0  0  0  0  0  0
    2.1411   -7.2487    0.7601 C   0  0  0  0  0  0  0  0  0  0  0  0
    0.8307   -7.0072    1.1511 C   0  0  0  0  0  0  0  0  0  0  0  0
    0.7164    1.6270    1.4360 H   0  0  0  0  0  0  0  0  0  0  0  0
   -0.6662    0.5282    1.3599 H   0  0  0  0  0  0  0  0  0  0  0  0
    0.7975    0.0206    2.1867 H   0  0  0  0  0  0  0  0  0  0  0  0
    0.7445    0.2650   -2.1366 H   0  0  0  0  0  0  0  0  0  0  0  0
   -0.7004    0.6778   -1.2280 H   0  0  0  0  0  0  0  0  0  0  0  0
    0.6910    1.7734   -1.2052 H   0  0  0  0  0  0  0  0  0  0  0  0
   -0.5751   -1.2822   -0.0730 H   0  0  0  0  0  0  0  0  0  0  0  0
    7.5439    3.4837    0.0254 H   0  0  0  0  0  0  0  0  0  0  0  0
    8.4057    2.0826    0.6675 H   0  0  0  0  0  0  0  0  0  0  0  0
    9.6256    2.8896   -1.2592 H   0  0  0  0  0  0  0  0  0  0  0  0
    8.9361    1.3306   -1.7113 H   0  0  0  0  0  0  0  0  0  0  0  0
    5.7261    2.4088   -2.6725 H   0  0  0  0  0  0  0  0  0  0  0  0
    6.2776    2.4605   -4.3561 H   0  0  0  0  0  0  0  0  0  0  0  0
    6.8173    1.1210   -3.3125 H   0  0  0  0  0  0  0  0  0  0  0  0
    1.6197   -2.4973    0.0353 H   0  0  0  0  0  0  0  0  0  0  0  0
    2.6124    2.1469    0.2549 H   0  0  0  0  0  0  0  0  0  0  0  0
    5.2870   -2.1186   -0.7171 H   0  0  0  0  0  0  0  0  0  0  0  0
    7.4247   -0.3111   -0.6754 H   0  0  0  0  0  0  0  0  0  0  0  0
    3.9207   -6.3663   -0.0645 H   0  0  0  0  0  0  0  0  0  0  0  0
    2.5788   -8.2383    0.8615 H   0  0  0  0  0  0  0  0  0  0  0  0
    0.2311   -7.8151    1.5648 H   0  0  0  0  0  0  0  0  0  0  0  0
  1  2  1  0  0  0  0
  1  3  1  0  0  0  0
  1  4  1  0  0  0  0
  1 24  1  0  0  0  0
  2 33  1  0  0  0  0
  2 34  1  0  0  0  0
  2 35  1  0  0  0  0
  3 36  1  0  0  0  0
  3 37  1  0  0  0  0
  3 38  1  0  0  0  0
  4 39  1  0  0  0  0
  5  6  1  0  0  0  0
  5 25  1  0  0  0  0
  5 40  1  0  0  0  0
  5 41  1  0  0  0  0
  6  7  1  0  0  0  0
  6 42  1  0  0  0  0
  6 43  1  0  0  0  0
  7  8  1  0  0  0  0
  7  9  2  0  0  0  0
  7 10  2  0  0  0  0
  8 44  1  0  0  0  0
  8 45  1  0  0  0  0
  8 46  1  0  0  0  0
 11 12  1  0  0  0  0
 11 26  1  0  0  0  0
 11 47  1  0  0  0  0
 12 13  2  0  0  0  0
 12 27  1  0  0  0  0
 14 15  1  0  0  0  0
 14 16  1  0  0  0  0
 14 17  1  0  0  0  0
 14 30  1  0  0  0  0
 18 19  1  0  0  0  0
 18 20  1  0  0  0  0
 18 21  2  0  0  0  0
 19 22  1  0  0  0  0
 19 23  2  0  0  0  0
 20 24  2  0  0  0  0
 20 48  1  0  0  0  0
 21 25  1  0  0  0  0
 22 26  2  0  0  0  0
 22 49  1  0  0  0  0
 23 25  1  0  0  0  0
 23 50  1  0  0  0  0
 24 26  1  0  0  0  0
 27 28  2  0  0  0  0
 27 29  1  0  0  0  0
 28 30  1  0  0  0  0
 29 31  2  0  0  0  0
 29 51  1  0  0  0  0
 30 32  2  0  0  0  0
 31 32  1  0  0  0  0
 31 52  1  0  0  0  0
 32 53  1  0  0  0  0
M  END
>  <Mol_ID>
6875

>  <Formula>
C20H21F3N4O4S

>  <MolWeight>
470.4653496

>  <Cat>
E2837

>  <Name>
Zabedosertib

>  <Synonyms>
BAY 1834845

>  <Target>
IRAK

>  <Form>
Free base

>  <CAS>
1931994-81-8

>  <URL>
http://www.selleckchem.com/products/zabedosertib.html

$$$$
