Zaltoprofen.cdx
 OpenBabel08302522033D

 35 37  0  0  0  0  0  0  0  0999 V2000
   -3.7344    0.1298    0.8364 C   0  0  0  0  0  0  0  0  0  0  0  0
   -3.3930   -1.2219    0.7591 C   0  0  0  0  0  0  0  0  0  0  0  0
   -2.2376   -1.6174    0.0811 C   0  0  0  0  0  0  0  0  0  0  0  0
   -1.4050   -0.6614   -0.5060 C   0  0  0  0  0  0  0  0  0  0  0  0
   -1.7317    0.6879   -0.3762 C   0  0  0  0  0  0  0  0  0  0  0  0
   -2.9016    1.0930    0.2693 C   0  0  0  0  0  0  0  0  0  0  0  0
   -0.0291   -1.1816   -1.4897 S   0  0  0  0  0  0  0  0  0  0  0  0
    1.3447   -0.5561   -0.5451 C   0  0  0  0  0  0  0  0  0  0  0  0
    1.4965    0.7475   -0.0441 C   0  0  0  0  0  0  0  0  0  0  0  0
    0.4844    1.8757   -0.1016 C   0  0  0  0  0  0  0  0  0  0  0  0
   -0.7974    1.7059   -0.8780 C   0  0  0  0  0  0  0  0  0  0  0  0
    2.3707   -1.4968   -0.3478 C   0  0  0  0  0  0  0  0  0  0  0  0
    3.5507   -1.1634    0.3109 C   0  0  0  0  0  0  0  0  0  0  0  0
    3.7461    0.1355    0.7790 C   0  0  0  0  0  0  0  0  0  0  0  0
    2.7096    1.0663    0.6138 C   0  0  0  0  0  0  0  0  0  0  0  0
   -1.1430    2.4475   -1.7923 O   0  0  0  0  0  0  0  0  0  0  0  0
    5.0703    0.5105    1.4155 C   0  0  3  0  0  0  0  0  0  0  0  0
    5.7678    1.6294    0.6381 C   0  0  0  0  0  0  0  0  0  0  0  0
    4.9217    0.8955    2.8729 C   0  0  0  0  0  0  0  0  0  0  0  0
    4.6664    2.0046    3.3180 O   0  0  0  0  0  0  0  0  0  0  0  0
    5.1042   -0.1466    3.7108 O   0  0  0  0  0  0  0  0  0  0  0  0
   -4.6492    0.4302    1.3414 H   0  0  0  0  0  0  0  0  0  0  0  0
   -4.0363   -1.9728    1.2118 H   0  0  0  0  0  0  0  0  0  0  0  0
   -1.9973   -2.6759    0.0080 H   0  0  0  0  0  0  0  0  0  0  0  0
   -3.1582    2.1475    0.3334 H   0  0  0  0  0  0  0  0  0  0  0  0
    0.9802    2.7688   -0.5057 H   0  0  0  0  0  0  0  0  0  0  0  0
    0.1935    2.1242    0.9298 H   0  0  0  0  0  0  0  0  0  0  0  0
    2.2605   -2.5146   -0.7204 H   0  0  0  0  0  0  0  0  0  0  0  0
    4.3161   -1.9255    0.4331 H   0  0  0  0  0  0  0  0  0  0  0  0
    2.8492    2.0821    0.9936 H   0  0  0  0  0  0  0  0  0  0  0  0
    5.7478   -0.3535    1.3822 H   0  0  0  0  0  0  0  0  0  0  0  0
    5.1833    2.5561    0.6333 H   0  0  0  0  0  0  0  0  0  0  0  0
    6.7402    1.8623    1.0854 H   0  0  0  0  0  0  0  0  0  0  0  0
    5.9333    1.3348   -0.4043 H   0  0  0  0  0  0  0  0  0  0  0  0
    5.0034    0.2446    4.6037 H   0  0  0  0  0  0  0  0  0  0  0  0
  1  2  2  0  0  0  0
  1 22  1  0  0  0  0
  2  3  1  0  0  0  0
  2 23  1  0  0  0  0
  3  4  2  0  0  0  0
  3 24  1  0  0  0  0
  4  5  1  0  0  0  0
  4  7  1  0  0  0  0
  5  6  2  0  0  0  0
  6  1  1  0  0  0  0
  6 25  1  0  0  0  0
  7  8  1  0  0  0  0
  8  9  2  0  0  0  0
  8 12  1  0  0  0  0
  9 10  1  0  0  0  0
 10 11  1  0  0  0  0
 10 26  1  0  0  0  0
 10 27  1  0  0  0  0
 11  5  1  0  0  0  0
 11 16  2  0  0  0  0
 12 13  2  0  0  0  0
 12 28  1  0  0  0  0
 13 14  1  0  0  0  0
 13 29  1  0  0  0  0
 14 15  2  0  0  0  0
 14 17  1  0  0  0  0
 15  9  1  0  0  0  0
 15 30  1  0  0  0  0
 17 18  1  0  0  0  0
 17 19  1  0  0  0  0
 17 31  1  0  0  0  0
 18 32  1  0  0  0  0
 18 33  1  0  0  0  0
 18 34  1  0  0  0  0
 19 20  2  0  0  0  0
 19 21  1  0  0  0  0
 21 35  1  0  0  0  0
M  END
>  <Mol_ID>
1163

>  <Formula>
C17H14O3S

>  <MolWeight>
298.35626

>  <Cat>
S3008

>  <Name>
Zaltoprofen

>  <Synonyms>
CN100,Soleton

>  <Target>
COX

>  <Form>
free base

>  <CAS>
74711-43-6

>  <URL>
http://selleckchem.com/products/zaltoprofen.html

$$$$
