Zamaporvint (RXC004)
 OpenBabel08302521373D

 48 51  0  0  0  0  0  0  0  0999 V2000
    0.6135    4.0892   -2.6997 C   0  0  0  0  0  0  0  0  0  0  0  0
    1.4131    2.9725    0.0371 C   0  0  0  0  0  0  0  0  0  0  0  0
    0.5243    3.0193    1.2552 C   0  0  0  0  0  0  0  0  0  0  0  0
   -0.5429    3.8901    1.1440 N   0  0  0  0  0  0  0  0  0  0  0  0
    0.7767    2.3330    2.2439 O   0  0  0  0  0  0  0  0  0  0  0  0
    1.0767    3.0395   -7.7424 C   0  0  0  0  0  0  0  0  0  0  0  0
    1.8249    4.0053   -7.1213 F   0  0  0  0  0  0  0  0  0  0  0  0
    1.9311    2.4314   -8.6130 F   0  0  0  0  0  0  0  0  0  0  0  0
    0.1784    3.7256   -8.5047 F   0  0  0  0  0  0  0  0  0  0  0  0
    0.3103    1.4890   -3.0490 C   0  0  0  0  0  0  0  0  0  0  0  0
    0.5760    2.6491   -2.3322 C   0  0  0  0  0  0  0  0  0  0  0  0
    0.3144    0.3961   -2.2165 N   0  0  0  0  0  0  0  0  0  0  0  0
    0.8569    2.1992   -1.0571 N   0  0  0  0  0  0  0  0  0  0  0  0
    0.6570    0.8481   -1.0333 C   0  0  0  0  0  0  0  0  0  0  0  0
    0.0639    1.3649   -4.4792 C   0  0  0  0  0  0  0  0  0  0  0  0
    0.6927    2.2061   -5.3998 C   0  0  0  0  0  0  0  0  0  0  0  0
   -0.7704    0.3594   -4.9632 C   0  0  0  0  0  0  0  0  0  0  0  0
    0.4217    2.0735   -6.7632 C   0  0  0  0  0  0  0  0  0  0  0  0
   -0.9737    0.2677   -6.3294 C   0  0  0  0  0  0  0  0  0  0  0  0
   -0.4136    1.1054   -7.2311 N   0  0  0  0  0  0  0  0  0  0  0  0
   -1.4620    4.0680    2.1801 C   0  0  0  0  0  0  0  0  0  0  0  0
   -1.0609    4.2245    3.4980 C   0  0  0  0  0  0  0  0  0  0  0  0
   -2.7501    4.0791    1.8011 N   0  0  0  0  0  0  0  0  0  0  0  0
   -2.0380    4.3122    4.4886 C   0  0  0  0  0  0  0  0  0  0  0  0
   -3.6778    4.1087    2.7957 C   0  0  0  0  0  0  0  0  0  0  0  0
   -3.3951    4.1994    4.1601 C   0  0  0  0  0  0  0  0  0  0  0  0
   -4.4538    4.1596    5.1776 C   0  0  0  0  0  0  0  0  0  0  0  0
   -4.2583    3.6864    6.4730 C   0  0  0  0  0  0  0  0  0  0  0  0
   -5.6861    4.5978    4.7923 N   0  0  0  0  0  0  0  0  0  0  0  0
   -5.2296    3.6474    7.4180 N   0  0  0  0  0  0  0  0  0  0  0  0
   -6.6570    4.5586    5.7318 C   0  0  0  0  0  0  0  0  0  0  0  0
   -6.4356    4.0972    7.0177 C   0  0  0  0  0  0  0  0  0  0  0  0
    0.2115    4.2780   -3.6972 H   0  0  0  0  0  0  0  0  0  0  0  0
    1.6418    4.4634   -2.6685 H   0  0  0  0  0  0  0  0  0  0  0  0
    0.0067    4.6771   -2.0037 H   0  0  0  0  0  0  0  0  0  0  0  0
    2.3701    2.5120    0.3066 H   0  0  0  0  0  0  0  0  0  0  0  0
    1.6247    3.9921   -0.2960 H   0  0  0  0  0  0  0  0  0  0  0  0
   -0.9677    3.9976    0.2311 H   0  0  0  0  0  0  0  0  0  0  0  0
    0.7917    0.2444   -0.1435 H   0  0  0  0  0  0  0  0  0  0  0  0
    1.4035    2.9560   -5.0686 H   0  0  0  0  0  0  0  0  0  0  0  0
   -1.2501   -0.3452   -4.2897 H   0  0  0  0  0  0  0  0  0  0  0  0
   -1.6126   -0.5045   -6.7494 H   0  0  0  0  0  0  0  0  0  0  0  0
   -0.0114    4.2847    3.7672 H   0  0  0  0  0  0  0  0  0  0  0  0
   -1.7168    4.4586    5.5170 H   0  0  0  0  0  0  0  0  0  0  0  0
   -4.7049    4.0235    2.4438 H   0  0  0  0  0  0  0  0  0  0  0  0
   -3.3001    3.2943    6.8015 H   0  0  0  0  0  0  0  0  0  0  0  0
   -7.6348    4.9135    5.4213 H   0  0  0  0  0  0  0  0  0  0  0  0
   -7.2248    4.0762    7.7602 H   0  0  0  0  0  0  0  0  0  0  0  0
  1 11  1  0  0  0  0
  1 33  1  0  0  0  0
  1 34  1  0  0  0  0
  1 35  1  0  0  0  0
  2  3  1  0  0  0  0
  2 13  1  0  0  0  0
  2 36  1  0  0  0  0
  2 37  1  0  0  0  0
  3  4  1  0  0  0  0
  3  5  2  0  0  0  0
  4 21  1  0  0  0  0
  4 38  1  0  0  0  0
  6  7  1  0  0  0  0
  6  8  1  0  0  0  0
  6  9  1  0  0  0  0
  6 18  1  0  0  0  0
 10 11  2  0  0  0  0
 10 12  1  0  0  0  0
 10 15  1  0  0  0  0
 11 13  1  0  0  0  0
 12 14  2  0  0  0  0
 13 14  1  0  0  0  0
 14 39  1  0  0  0  0
 15 16  2  0  0  0  0
 15 17  1  0  0  0  0
 16 18  1  0  0  0  0
 16 40  1  0  0  0  0
 17 19  2  0  0  0  0
 17 41  1  0  0  0  0
 18 20  2  0  0  0  0
 19 20  1  0  0  0  0
 19 42  1  0  0  0  0
 21 22  2  0  0  0  0
 21 23  1  0  0  0  0
 22 24  1  0  0  0  0
 22 43  1  0  0  0  0
 23 25  2  0  0  0  0
 24 26  2  0  0  0  0
 24 44  1  0  0  0  0
 25 26  1  0  0  0  0
 25 45  1  0  0  0  0
 26 27  1  0  0  0  0
 27 28  2  0  0  0  0
 27 29  1  0  0  0  0
 28 30  1  0  0  0  0
 28 46  1  0  0  0  0
 29 31  2  0  0  0  0
 30 32  2  0  0  0  0
 31 32  1  0  0  0  0
 31 47  1  0  0  0  0
 32 48  1  0  0  0  0
M  END
>  <Mol_ID>
7553

>  <Formula>
C21H16F3N7O

>  <MolWeight>
439.3932496

>  <Cat>
E1486

>  <Name>
Zamaporvint (RXC004)

>  <Target>
Wnt/beta-catenin

>  <Form>
free base

>  <CAS>
1900754-56-4

>  <URL>
https://www.selleckchem.com/products/rxc004.html

$$$$
