ZAP-180013
 OpenBabel08302521373D

 46 48  0  0  0  0  0  0  0  0999 V2000
   -0.2635    1.0251    1.0641 C   0  0  0  0  0  0  0  0  0  0  0  0
    0.7378    0.3337    0.4914 N   0  0  0  0  0  0  0  0  0  0  0  0
    0.8380   -0.9690    0.8734 C   0  0  0  0  0  0  0  0  0  0  0  0
   -0.0464   -1.5441    1.7652 C   0  0  0  0  0  0  0  0  0  0  0  0
   -1.0348   -0.7275    2.2721 C   0  0  0  0  0  0  0  0  0  0  0  0
   -1.1694    0.5657    1.9478 N   0  0  0  0  0  0  0  0  0  0  0  0
    2.0878   -1.6678    0.3937 C   0  0  0  0  0  0  0  0  0  0  0  0
    3.0820   -0.9420    0.2472 O   0  0  0  0  0  0  0  0  0  0  0  0
    2.1774   -3.0519    0.1402 N   0  0  0  0  0  0  0  0  0  0  0  0
    1.0949   -4.0380    0.1588 C   0  0  0  0  0  0  0  0  0  0  0  0
   -1.2893   -3.9895   -0.2139 O   0  0  0  0  0  0  0  0  0  0  0  0
   -0.0577   -3.6302   -0.6791 C   0  0  0  0  0  0  0  0  0  0  0  0
   -0.1936   -2.9391   -1.8623 C   0  0  0  0  0  0  0  0  0  0  0  0
   -1.5803   -2.8518   -2.1255 C   0  0  0  0  0  0  0  0  0  0  0  0
   -2.2050   -3.5152   -1.0967 C   0  0  0  0  0  0  0  0  0  0  0  0
   -0.5656    2.6882    0.4612 S   0  0  0  0  0  0  0  0  0  0  0  0
   -1.8848    2.6902   -0.1543 O   0  0  0  0  0  0  0  0  0  0  0  0
   -0.2317    3.6247    1.5185 O   0  0  0  0  0  0  0  0  0  0  0  0
    0.6129    2.9036   -0.8524 C   0  0  0  0  0  0  0  0  0  0  0  0
    0.4820    4.2569   -1.5218 C   0  0  0  0  0  0  0  0  0  0  0  0
    3.5274   -3.6185    0.0259 C   0  0  0  0  0  0  0  0  0  0  0  0
    4.0099   -4.2470    1.3199 C   0  0  0  0  0  0  0  0  0  0  0  0
    4.2935   -5.6183    1.3979 C   0  0  0  0  0  0  0  0  0  0  0  0
    4.8073   -6.1682    2.5783 C   0  0  0  0  0  0  0  0  0  0  0  0
    5.0410   -5.3583    3.6871 C   0  0  0  0  0  0  0  0  0  0  0  0
    4.7460   -3.9988    3.6267 C   0  0  0  0  0  0  0  0  0  0  0  0
    4.2360   -3.4445    2.4511 C   0  0  0  0  0  0  0  0  0  0  0  0
    0.0137   -2.5657    2.0991 H   0  0  0  0  0  0  0  0  0  0  0  0
   -1.7638   -1.1064    2.9844 H   0  0  0  0  0  0  0  0  0  0  0  0
    1.4672   -4.9865   -0.2481 H   0  0  0  0  0  0  0  0  0  0  0  0
    0.8181   -4.2370    1.1970 H   0  0  0  0  0  0  0  0  0  0  0  0
    0.6144   -2.5278   -2.4589 H   0  0  0  0  0  0  0  0  0  0  0  0
   -2.0685   -2.3657   -2.9594 H   0  0  0  0  0  0  0  0  0  0  0  0
   -3.2388   -3.7223   -0.8571 H   0  0  0  0  0  0  0  0  0  0  0  0
    1.6103    2.7898   -0.4227 H   0  0  0  0  0  0  0  0  0  0  0  0
    0.4319    2.1102   -1.5849 H   0  0  0  0  0  0  0  0  0  0  0  0
    0.6743    5.0712   -0.8149 H   0  0  0  0  0  0  0  0  0  0  0  0
    1.2003    4.3387   -2.3402 H   0  0  0  0  0  0  0  0  0  0  0  0
   -0.5225    4.4061   -1.9342 H   0  0  0  0  0  0  0  0  0  0  0  0
    3.5200   -4.3610   -0.7833 H   0  0  0  0  0  0  0  0  0  0  0  0
    4.2571   -2.8610   -0.2776 H   0  0  0  0  0  0  0  0  0  0  0  0
    4.1410   -6.2691    0.5428 H   0  0  0  0  0  0  0  0  0  0  0  0
    5.0461   -7.2289    2.6262 H   0  0  0  0  0  0  0  0  0  0  0  0
    5.4642   -5.7817    4.5952 H   0  0  0  0  0  0  0  0  0  0  0  0
    4.9347   -3.3611    4.4867 H   0  0  0  0  0  0  0  0  0  0  0  0
    4.0383   -2.3766    2.4130 H   0  0  0  0  0  0  0  0  0  0  0  0
  1  2  2  0  0  0  0
  1  6  1  0  0  0  0
  1 16  1  0  0  0  0
  2  3  1  0  0  0  0
  3  4  2  0  0  0  0
  3  7  1  0  0  0  0
  4  5  1  0  0  0  0
  4 28  1  0  0  0  0
  5  6  2  0  0  0  0
  5 29  1  0  0  0  0
  7  8  2  0  0  0  0
  7  9  1  0  0  0  0
  9 10  1  0  0  0  0
  9 21  1  0  0  0  0
 10 12  1  0  0  0  0
 10 30  1  0  0  0  0
 10 31  1  0  0  0  0
 11 12  1  0  0  0  0
 11 15  1  0  0  0  0
 12 13  2  0  0  0  0
 13 14  1  0  0  0  0
 13 32  1  0  0  0  0
 14 15  2  0  0  0  0
 14 33  1  0  0  0  0
 15 34  1  0  0  0  0
 16 17  2  0  0  0  0
 16 18  2  0  0  0  0
 16 19  1  0  0  0  0
 19 20  1  0  0  0  0
 19 35  1  0  0  0  0
 19 36  1  0  0  0  0
 20 37  1  0  0  0  0
 20 38  1  0  0  0  0
 20 39  1  0  0  0  0
 21 22  1  0  0  0  0
 21 40  1  0  0  0  0
 21 41  1  0  0  0  0
 22 23  2  0  0  0  0
 22 27  1  0  0  0  0
 23 24  1  0  0  0  0
 23 42  1  0  0  0  0
 24 25  2  0  0  0  0
 24 43  1  0  0  0  0
 25 26  1  0  0  0  0
 25 44  1  0  0  0  0
 26 27  2  0  0  0  0
 26 45  1  0  0  0  0
 27 46  1  0  0  0  0
M  END
>  <Mol_ID>
7478

>  <Formula>
C19H17Cl2N3O4S

>  <MolWeight>
454.32698

>  <Cat>
E0437

>  <Name>
ZAP-180013

>  <Target>
syk

>  <Form>
free base

>  <CAS>
873080-25-2

>  <URL>
https://www.selleckchem.com/products/zap-180013.html

$$$$
