Zasocitinib
 OpenBabel08302521353D

 58 62  0  0  1  0  0  0  0  0999 V2000
    4.2861    2.1325   -1.0754 C   0  0  0  0  0  0  0  0  0  0  0  0
    5.5392    2.1926   -1.5663 N   0  0  0  0  0  0  0  0  0  0  0  0
    3.7400    1.0811   -1.4678 O   0  0  0  0  0  0  0  0  0  0  0  0
   -0.7082    2.6271   -1.3781 N   0  0  0  0  0  0  0  0  0  0  0  0
   -0.9645    3.9050   -1.9951 C   0  0  0  0  0  0  0  0  0  0  0  0
    1.5763   -0.9573    0.9384 N   0  0  0  0  0  0  0  0  0  0  0  0
    7.3200    4.9742   -3.2910 O   0  0  0  0  0  0  0  0  0  0  0  0
    7.7099    6.3215   -3.4707 C   0  0  0  0  0  0  0  0  0  0  0  0
    1.6180   -3.2081   -0.3968 O   0  0  0  0  0  0  0  0  0  0  0  0
    2.5107    2.4440    0.5439 C   0  0  0  0  0  0  0  0  0  0  0  0
    1.3972    3.0459   -0.0808 N   0  0  0  0  0  0  0  0  0  0  0  0
    3.5286    3.0157   -0.2271 C   0  0  0  0  0  0  0  0  0  0  0  0
    2.4690    1.2011    1.1097 N   0  0  0  0  0  0  0  0  0  0  0  0
    0.3207    2.2112   -0.5238 C   0  0  0  0  0  0  0  0  0  0  0  0
    1.7243    4.3678   -0.3030 N   0  0  0  0  0  0  0  0  0  0  0  0
    3.0684    4.3259   -0.3945 C   0  0  0  0  0  0  0  0  0  0  0  0
    1.5307    0.4005    0.6785 C   0  0  0  0  0  0  0  0  0  0  0  0
    0.3853    0.9077   -0.1700 C   0  0  0  0  0  0  0  0  0  0  0  0
    6.6385    3.0774   -1.8878 C   0  0  1  0  0  0  0  0  0  0  0  0
    6.5737    4.5988   -2.1009 C   0  0  1  0  0  0  0  0  0  0  0  0
    7.7371    3.2790   -0.8454 C   0  0  0  0  0  0  0  0  0  0  0  0
    7.2992    4.7466   -0.7363 C   0  0  0  0  0  0  0  0  0  0  0  0
    2.7146   -1.7544    1.0834 C   0  0  0  0  0  0  0  0  0  0  0  0
    2.6437   -3.0422    0.2840 C   0  0  0  0  0  0  0  0  0  0  0  0
    3.8340   -1.5351    1.7965 C   0  0  0  0  0  0  0  0  0  0  0  0
    3.7118   -3.9339    0.3750 N   0  0  0  0  0  0  0  0  0  0  0  0
    4.8704   -2.5351    1.8990 C   0  0  0  0  0  0  0  0  0  0  0  0
    4.7726   -3.6914    1.2281 C   0  0  0  0  0  0  0  0  0  0  0  0
    3.6577   -5.1181   -0.4146 C   0  0  0  0  0  0  0  0  0  0  0  0
    3.3951   -5.0034   -1.7826 C   0  0  0  0  0  0  0  0  0  0  0  0
    3.8722   -6.3196    0.1748 N   0  0  0  0  0  0  0  0  0  0  0  0
    3.2667   -6.1502   -2.5569 C   0  0  0  0  0  0  0  0  0  0  0  0
    3.6764   -7.4216   -0.5918 C   0  0  0  0  0  0  0  0  0  0  0  0
    3.3743   -7.3882   -1.9438 C   0  0  0  0  0  0  0  0  0  0  0  0
    5.6315    1.2830   -2.0221 H   0  0  0  0  0  0  0  0  0  0  0  0
   -1.2558    1.8680   -1.7780 H   0  0  0  0  0  0  0  0  0  0  0  0
   -0.9141    3.8114   -3.0868 H   0  0  0  0  0  0  0  0  0  0  0  0
   -1.9863    4.2095   -1.7460 H   0  0  0  0  0  0  0  0  0  0  0  0
   -0.2897    4.7001   -1.6867 H   0  0  0  0  0  0  0  0  0  0  0  0
    0.8967   -1.4963    0.3978 H   0  0  0  0  0  0  0  0  0  0  0  0
    6.8396    6.9317   -3.7159 H   0  0  0  0  0  0  0  0  0  0  0  0
    8.2190    6.7105   -2.5869 H   0  0  0  0  0  0  0  0  0  0  0  0
    8.4130    6.3561   -4.3102 H   0  0  0  0  0  0  0  0  0  0  0  0
    3.5854    5.2146   -0.7244 H   0  0  0  0  0  0  0  0  0  0  0  0
   -0.3482    0.1821   -0.4951 H   0  0  0  0  0  0  0  0  0  0  0  0
    7.0763    2.6201   -2.7913 H   0  0  0  0  0  0  0  0  0  0  0  0
    5.5729    5.0387   -2.1251 H   0  0  0  0  0  0  0  0  0  0  0  0
    7.6827    2.6894    0.0714 H   0  0  0  0  0  0  0  0  0  0  0  0
    8.7388    3.1554   -1.2805 H   0  0  0  0  0  0  0  0  0  0  0  0
    8.1281    5.4583   -0.6923 H   0  0  0  0  0  0  0  0  0  0  0  0
    6.6249    4.9427    0.1040 H   0  0  0  0  0  0  0  0  0  0  0  0
    3.9627   -0.6157    2.3504 H   0  0  0  0  0  0  0  0  0  0  0  0
    5.7299   -2.3255    2.5287 H   0  0  0  0  0  0  0  0  0  0  0  0
    5.5390   -4.4576    1.2880 H   0  0  0  0  0  0  0  0  0  0  0  0
    3.3048   -4.0255   -2.2453 H   0  0  0  0  0  0  0  0  0  0  0  0
    3.0627   -6.0693   -3.6211 H   0  0  0  0  0  0  0  0  0  0  0  0
    3.7555   -8.3715   -0.0683 H   0  0  0  0  0  0  0  0  0  0  0  0
    3.2246   -8.3032   -2.5061 H   0  0  0  0  0  0  0  0  0  0  0  0
  1  2  1  0  0  0  0
  1  3  2  0  0  0  0
  1 12  1  0  0  0  0
  2 35  1  0  0  0  0
  4  5  1  0  0  0  0
  4 14  1  0  0  0  0
  4 36  1  0  0  0  0
  5 37  1  0  0  0  0
  5 38  1  0  0  0  0
  5 39  1  0  0  0  0
  6 17  1  0  0  0  0
  6 23  1  0  0  0  0
  6 40  1  0  0  0  0
  7  8  1  0  0  0  0
  8 41  1  0  0  0  0
  8 42  1  0  0  0  0
  8 43  1  0  0  0  0
  9 24  2  0  0  0  0
 10 11  1  0  0  0  0
 10 12  2  0  0  0  0
 10 13  1  0  0  0  0
 11 14  1  0  0  0  0
 11 15  1  0  0  0  0
 12 16  1  0  0  0  0
 13 17  2  0  0  0  0
 14 18  2  0  0  0  0
 15 16  2  0  0  0  0
 16 44  1  0  0  0  0
 17 18  1  0  0  0  0
 18 45  1  0  0  0  0
 19 20  1  0  0  0  0
 19 21  1  0  0  0  0
 19 46  1  6  0  0  0
 19  2  1  0  0  0  0
 20  7  1  0  0  0  0
 20 22  1  0  0  0  0
 20 47  1  1  0  0  0
 21 22  1  0  0  0  0
 21 48  1  0  0  0  0
 21 49  1  0  0  0  0
 22 50  1  0  0  0  0
 22 51  1  0  0  0  0
 23 24  1  0  0  0  0
 23 25  2  0  0  0  0
 24 26  1  0  0  0  0
 25 27  1  0  0  0  0
 25 52  1  0  0  0  0
 26 28  1  0  0  0  0
 26 29  1  0  0  0  0
 27 28  2  0  0  0  0
 27 53  1  0  0  0  0
 28 54  1  0  0  0  0
 29 30  2  0  0  0  0
 29 31  1  0  0  0  0
 30 32  1  0  0  0  0
 30 55  1  0  0  0  0
 31 33  2  0  0  0  0
 32 34  2  0  0  0  0
 32 56  1  0  0  0  0
 33 34  1  0  0  0  0
 33 57  1  0  0  0  0
 34 58  1  0  0  0  0
M  END
>  <Mol_ID>
6945

>  <Formula>
C23H24N8O3

>  <MolWeight>
460.48846

>  <Cat>
E1526

>  <Name>
Zasocitinib

>  <Synonyms>
NDI-034858; TAK-279

>  <Target>
JAK

>  <Form>
free base

>  <CAS>
2272904-53-5

>  <URL>
https://www.selleckchem.com/products/zasocitinib.html

$$$$
