ZEN-3694
 OpenBabel08302521353D

 44 47  0  0  0  0  0  0  0  0999 V2000
    1.0313   -0.1326   -0.2858 C   0  0  0  0  0  0  0  0  0  0  0  0
    2.4069    2.3012    0.6756 N   0  0  0  0  0  0  0  0  0  0  0  0
    3.0237    3.5247    1.1504 C   0  0  0  0  0  0  0  0  0  0  0  0
   -4.2355    2.3384   -4.8276 C   0  0  0  0  0  0  0  0  0  0  0  0
   -4.7301   -0.7460   -0.7626 C   0  0  0  0  0  0  0  0  0  0  0  0
   -0.7216    1.5927   -0.7689 C   0  0  0  0  0  0  0  0  0  0  0  0
    0.4795    1.2114   -0.2122 N   0  0  0  0  0  0  0  0  0  0  0  0
   -0.6454    2.9781   -0.8105 C   0  0  0  0  0  0  0  0  0  0  0  0
   -1.8166    0.8983   -1.2923 C   0  0  0  0  0  0  0  0  0  0  0  0
    1.1759    2.3578    0.1188 C   0  0  0  0  0  0  0  0  0  0  0  0
    0.5063    3.4319   -0.2341 N   0  0  0  0  0  0  0  0  0  0  0  0
   -1.5916    3.7529   -1.3877 N   0  0  0  0  0  0  0  0  0  0  0  0
   -2.8078    1.6761   -1.9022 C   0  0  0  0  0  0  0  0  0  0  0  0
   -2.6288    3.0628   -1.9220 C   0  0  0  0  0  0  0  0  0  0  0  0
    0.8412   -1.0135    0.9273 C   0  0  0  0  0  0  0  0  0  0  0  0
    0.1872   -0.6290    2.1045 C   0  0  0  0  0  0  0  0  0  0  0  0
    1.3769   -2.3144    0.8577 C   0  0  0  0  0  0  0  0  0  0  0  0
    0.0926   -1.5143    3.1850 C   0  0  0  0  0  0  0  0  0  0  0  0
    1.2815   -3.1955    1.9350 C   0  0  0  0  0  0  0  0  0  0  0  0
    0.6427   -2.7926    3.1006 C   0  0  0  0  0  0  0  0  0  0  0  0
   -3.9580    1.0588   -2.5434 C   0  0  0  0  0  0  0  0  0  0  0  0
   -4.5847    1.3309   -3.7970 C   0  0  0  0  0  0  0  0  0  0  0  0
   -4.7183    0.0292   -2.0199 C   0  0  0  0  0  0  0  0  0  0  0  0
   -5.6230    0.5154   -4.0111 N   0  0  0  0  0  0  0  0  0  0  0  0
   -5.7011   -0.2960   -2.9019 O   0  0  0  0  0  0  0  0  0  0  0  0
    2.1018   -0.0339   -0.4989 H   0  0  0  0  0  0  0  0  0  0  0  0
    0.5763   -0.6191   -1.1567 H   0  0  0  0  0  0  0  0  0  0  0  0
    2.6970    1.4721    1.1859 H   0  0  0  0  0  0  0  0  0  0  0  0
    2.7860    3.6856    2.2063 H   0  0  0  0  0  0  0  0  0  0  0  0
    4.1106    3.4350    1.0570 H   0  0  0  0  0  0  0  0  0  0  0  0
    2.7197    4.4086    0.5781 H   0  0  0  0  0  0  0  0  0  0  0  0
   -4.4638    3.3471   -4.4692 H   0  0  0  0  0  0  0  0  0  0  0  0
   -3.1713    2.2866   -5.0762 H   0  0  0  0  0  0  0  0  0  0  0  0
   -4.8034    2.1816   -5.7513 H   0  0  0  0  0  0  0  0  0  0  0  0
   -3.7839   -1.2710   -0.6088 H   0  0  0  0  0  0  0  0  0  0  0  0
   -4.9090   -0.0864    0.0914 H   0  0  0  0  0  0  0  0  0  0  0  0
   -5.5225   -1.5025   -0.7733 H   0  0  0  0  0  0  0  0  0  0  0  0
   -1.8637   -0.1824   -1.2576 H   0  0  0  0  0  0  0  0  0  0  0  0
   -3.3613    3.7105   -2.3994 H   0  0  0  0  0  0  0  0  0  0  0  0
   -0.2553    0.3592    2.2113 H   0  0  0  0  0  0  0  0  0  0  0  0
    1.8830   -2.6501   -0.0461 H   0  0  0  0  0  0  0  0  0  0  0  0
   -0.4108   -1.2053    4.0978 H   0  0  0  0  0  0  0  0  0  0  0  0
    1.7103   -4.1926    1.8623 H   0  0  0  0  0  0  0  0  0  0  0  0
    0.5756   -3.4734    3.9473 H   0  0  0  0  0  0  0  0  0  0  0  0
  1  7  1  0  0  0  0
  1 15  1  0  0  0  0
  1 26  1  0  0  0  0
  1 27  1  0  0  0  0
  2  3  1  0  0  0  0
  2 10  1  0  0  0  0
  2 28  1  0  0  0  0
  3 29  1  0  0  0  0
  3 30  1  0  0  0  0
  3 31  1  0  0  0  0
  4 22  1  0  0  0  0
  4 32  1  0  0  0  0
  4 33  1  0  0  0  0
  4 34  1  0  0  0  0
  5 23  1  0  0  0  0
  5 35  1  0  0  0  0
  5 36  1  0  0  0  0
  5 37  1  0  0  0  0
  6  7  1  0  0  0  0
  6  8  1  0  0  0  0
  6  9  2  0  0  0  0
  7 10  1  0  0  0  0
  8 11  1  0  0  0  0
  8 12  2  0  0  0  0
  9 13  1  0  0  0  0
  9 38  1  0  0  0  0
 10 11  2  0  0  0  0
 12 14  1  0  0  0  0
 13 14  2  0  0  0  0
 13 21  1  0  0  0  0
 14 39  1  0  0  0  0
 15 16  2  0  0  0  0
 15 17  1  0  0  0  0
 16 18  1  0  0  0  0
 16 40  1  0  0  0  0
 17 19  2  0  0  0  0
 17 41  1  0  0  0  0
 18 20  2  0  0  0  0
 18 42  1  0  0  0  0
 19 20  1  0  0  0  0
 19 43  1  0  0  0  0
 20 44  1  0  0  0  0
 21 22  1  0  0  0  0
 21 23  2  0  0  0  0
 22 24  2  0  0  0  0
 23 25  1  0  0  0  0
 24 25  1  0  0  0  0
M  END
>  <Mol_ID>
6944

>  <Formula>
C19H19N5O

>  <MolWeight>
333.38706

>  <Cat>
E1517

>  <Name>
ZEN-3694

>  <Target>
Epigenetic Reader Domain

>  <Form>
free base

>  <CAS>
1643947-30-1

>  <URL>
https://www.selleckchem.com/products/zen-3694.html

$$$$
