Zileuton.cdx
 OpenBabel08302519593D

 28 29  0  0  0  0  0  0  0  0999 V2000
   -2.3565    0.9943   -0.0202 C   0  0  0  0  0  0  0  0  0  0  0  0
   -2.6715   -0.3576    0.0117 C   0  0  0  0  0  0  0  0  0  0  0  0
   -1.6538   -1.3148    0.0249 C   0  0  0  0  0  0  0  0  0  0  0  0
   -0.2946   -0.9201    0.0030 C   0  0  0  0  0  0  0  0  0  0  0  0
   -0.0029    0.4441   -0.0402 C   0  0  0  0  0  0  0  0  0  0  0  0
   -1.0253    1.4136   -0.0480 C   0  0  0  0  0  0  0  0  0  0  0  0
    0.9039   -1.7071    0.0252 C   0  0  0  0  0  0  0  0  0  0  0  0
    2.0610   -0.9552   -0.0346 C   0  0  0  0  0  0  0  0  0  0  0  0
    1.6965    0.7188   -0.0803 S   0  0  0  0  0  0  0  0  0  0  0  0
    3.5020   -1.4162   -0.0509 C   0  0  3  0  0  0  0  0  0  0  0  0
    3.9883   -1.4788    1.3357 N   0  0  0  0  0  0  0  0  0  0  0  0
    3.7058   -2.7106   -0.8418 C   0  0  0  0  0  0  0  0  0  0  0  0
    5.0471   -0.5793    1.6043 O   0  0  0  0  0  0  0  0  0  0  0  0
    3.7802   -2.5108    2.2134 C   0  0  0  0  0  0  0  0  0  0  0  0
    4.4185   -2.3737    3.4081 N   0  0  0  0  0  0  0  0  0  0  0  0
    3.0797   -3.4940    2.0088 O   0  0  0  0  0  0  0  0  0  0  0  0
   -3.1534    1.7361   -0.0247 H   0  0  0  0  0  0  0  0  0  0  0  0
   -3.7111   -0.6752    0.0306 H   0  0  0  0  0  0  0  0  0  0  0  0
   -1.9080   -2.3724    0.0522 H   0  0  0  0  0  0  0  0  0  0  0  0
   -0.7835    2.4722   -0.0756 H   0  0  0  0  0  0  0  0  0  0  0  0
    0.9045   -2.7894    0.0817 H   0  0  0  0  0  0  0  0  0  0  0  0
    4.1024   -0.6502   -0.5606 H   0  0  0  0  0  0  0  0  0  0  0  0
    3.4142   -2.5699   -1.8886 H   0  0  0  0  0  0  0  0  0  0  0  0
    4.7554   -3.0202   -0.8170 H   0  0  0  0  0  0  0  0  0  0  0  0
    3.1088   -3.5429   -0.4561 H   0  0  0  0  0  0  0  0  0  0  0  0
    4.5581    0.2273    1.8503 H   0  0  0  0  0  0  0  0  0  0  0  0
    4.1755   -3.0678    4.1048 H   0  0  0  0  0  0  0  0  0  0  0  0
    4.5908   -1.4350    3.7274 H   0  0  0  0  0  0  0  0  0  0  0  0
  1  2  2  0  0  0  0
  1 17  1  0  0  0  0
  2  3  1  0  0  0  0
  2 18  1  0  0  0  0
  3  4  2  0  0  0  0
  3 19  1  0  0  0  0
  4  5  1  0  0  0  0
  4  7  1  0  0  0  0
  5  6  2  0  0  0  0
  6  1  1  0  0  0  0
  6 20  1  0  0  0  0
  7  8  2  0  0  0  0
  7 21  1  0  0  0  0
  8  9  1  0  0  0  0
  8 10  1  0  0  0  0
  9  5  1  0  0  0  0
 10 11  1  0  0  0  0
 10 12  1  0  0  0  0
 10 22  1  0  0  0  0
 11 13  1  0  0  0  0
 11 14  1  0  0  0  0
 12 23  1  0  0  0  0
 12 24  1  0  0  0  0
 12 25  1  0  0  0  0
 13 26  1  0  0  0  0
 14 15  1  0  0  0  0
 14 16  2  0  0  0  0
 15 27  1  0  0  0  0
 15 28  1  0  0  0  0
M  END
>  <Mol_ID>
260

>  <Formula>
C11H12N2O2S

>  <MolWeight>
236.29018

>  <Cat>
S1443

>  <Name>
Zileuton (A-64077)

>  <Synonyms>
A-64077, Abbott 64077, ZYFLO

>  <Target>
Apoptosis related,Ferroptosis,Lipoxygenase

>  <Form>
free base

>  <CAS>
111406-87-2

>  <URL>
http://selleckchem.com/products/Zileuton.html

$$$$
