ZINC00881524 (ROCK inhibitor).cdx
 OpenBabel08302520433D

 47 50  0  0  0  0  0  0  0  0999 V2000
   -9.5285    0.9827   -0.6417 C   0  0  0  0  0  0  0  0  0  0  0  0
   -8.6940   -0.0318   -1.1087 C   0  0  0  0  0  0  0  0  0  0  0  0
   -9.2530   -1.2682   -1.5253 C   0  0  0  0  0  0  0  0  0  0  0  0
  -10.6361   -1.4687   -1.4420 C   0  0  0  0  0  0  0  0  0  0  0  0
  -11.4624   -0.4378   -0.9935 C   0  0  0  0  0  0  0  0  0  0  0  0
  -10.9114    0.7819   -0.5948 C   0  0  0  0  0  0  0  0  0  0  0  0
   -7.2502    0.1555   -1.2237 C   0  0  0  0  0  0  0  0  0  0  0  0
   -6.5211   -0.7413   -1.9803 C   0  0  0  0  0  0  0  0  0  0  0  0
   -7.1240   -1.8566   -2.7631 C   0  0  0  0  0  0  0  0  0  0  0  0
   -8.3474   -2.3924   -2.0059 C   0  0  0  0  0  0  0  0  0  0  0  0
   -6.5149    1.1888   -0.6740 N   0  0  0  0  0  0  0  0  0  0  0  0
   -5.2563    1.0466   -1.0182 C   0  0  0  0  0  0  0  0  0  0  0  0
   -4.8657   -0.3594   -1.9217 S   0  0  0  0  0  0  0  0  0  0  0  0
   -4.1842    1.8669   -0.7923 N   0  0  0  0  0  0  0  0  0  0  0  0
   -4.3424    3.1860   -0.4213 C   0  0  0  0  0  0  0  0  0  0  0  0
   -5.4105    3.7711   -0.2361 O   0  0  0  0  0  0  0  0  0  0  0  0
   -3.0251    3.9464   -0.2912 C   0  0  0  0  0  0  0  0  0  0  0  0
   -2.5222    4.4767   -1.6129 C   0  0  0  0  0  0  0  0  0  0  0  0
   -3.2893    5.3886   -2.3593 C   0  0  0  0  0  0  0  0  0  0  0  0
   -2.8846    5.7970   -3.6379 C   0  0  0  0  0  0  0  0  0  0  0  0
   -1.6965    5.2760   -4.1866 C   0  0  0  0  0  0  0  0  0  0  0  0
   -0.8882    4.4441   -3.4041 C   0  0  0  0  0  0  0  0  0  0  0  0
   -1.2918    4.0575   -2.1242 C   0  0  0  0  0  0  0  0  0  0  0  0
   -3.5818    6.6807   -4.4267 O   0  0  0  0  0  0  0  0  0  0  0  0
   -1.4082    5.6270   -5.4834 O   0  0  0  0  0  0  0  0  0  0  0  0
   -0.3092    4.9729   -6.1054 C   0  0  0  0  0  0  0  0  0  0  0  0
   -4.7541    7.2681   -3.8774 C   0  0  0  0  0  0  0  0  0  0  0  0
   -9.1083    1.9405   -0.3408 H   0  0  0  0  0  0  0  0  0  0  0  0
  -11.0798   -2.4172   -1.7371 H   0  0  0  0  0  0  0  0  0  0  0  0
  -12.5377   -0.5875   -0.9469 H   0  0  0  0  0  0  0  0  0  0  0  0
  -11.5615    1.5859   -0.2562 H   0  0  0  0  0  0  0  0  0  0  0  0
   -6.4119   -2.6636   -2.9620 H   0  0  0  0  0  0  0  0  0  0  0  0
   -7.4505   -1.4554   -3.7325 H   0  0  0  0  0  0  0  0  0  0  0  0
   -8.0225   -2.9654   -1.1263 H   0  0  0  0  0  0  0  0  0  0  0  0
   -8.9026   -3.0785   -2.6586 H   0  0  0  0  0  0  0  0  0  0  0  0
   -3.2884    1.5392   -1.1278 H   0  0  0  0  0  0  0  0  0  0  0  0
   -3.1737    4.7822    0.4071 H   0  0  0  0  0  0  0  0  0  0  0  0
   -2.2805    3.2903    0.1766 H   0  0  0  0  0  0  0  0  0  0  0  0
   -4.2182    5.7514   -1.9261 H   0  0  0  0  0  0  0  0  0  0  0  0
    0.0633    4.0720   -3.7688 H   0  0  0  0  0  0  0  0  0  0  0  0
   -0.6363    3.4143   -1.5415 H   0  0  0  0  0  0  0  0  0  0  0  0
    0.6344    5.3195   -5.6727 H   0  0  0  0  0  0  0  0  0  0  0  0
   -0.3933    3.8814   -6.0436 H   0  0  0  0  0  0  0  0  0  0  0  0
   -0.3094    5.2396   -7.1666 H   0  0  0  0  0  0  0  0  0  0  0  0
   -5.5361    6.5152   -3.7373 H   0  0  0  0  0  0  0  0  0  0  0  0
   -4.5406    7.7976   -2.9422 H   0  0  0  0  0  0  0  0  0  0  0  0
   -5.1271    8.0080   -4.5929 H   0  0  0  0  0  0  0  0  0  0  0  0
  1  2  2  0  0  0  0
  1 28  1  0  0  0  0
  2  3  1  0  0  0  0
  2  7  1  0  0  0  0
  3  4  2  0  0  0  0
  4  5  1  0  0  0  0
  4 29  1  0  0  0  0
  5  6  2  0  0  0  0
  5 30  1  0  0  0  0
  6  1  1  0  0  0  0
  6 31  1  0  0  0  0
  7  8  2  0  0  0  0
  7 11  1  0  0  0  0
  8  9  1  0  0  0  0
  9 10  1  0  0  0  0
  9 32  1  0  0  0  0
  9 33  1  0  0  0  0
 10  3  1  0  0  0  0
 10 34  1  0  0  0  0
 10 35  1  0  0  0  0
 11 12  2  0  0  0  0
 12 13  1  0  0  0  0
 12 14  1  0  0  0  0
 13  8  1  0  0  0  0
 14 15  1  0  0  0  0
 14 36  1  0  0  0  0
 15 16  2  0  0  0  0
 15 17  1  0  0  0  0
 17 18  1  0  0  0  0
 17 37  1  0  0  0  0
 17 38  1  0  0  0  0
 18 19  2  0  0  0  0
 19 20  1  0  0  0  0
 19 39  1  0  0  0  0
 20 21  2  0  0  0  0
 20 24  1  0  0  0  0
 21 22  1  0  0  0  0
 21 25  1  0  0  0  0
 22 23  2  0  0  0  0
 22 40  1  0  0  0  0
 23 18  1  0  0  0  0
 23 41  1  0  0  0  0
 24 27  1  0  0  0  0
 25 26  1  0  0  0  0
 26 42  1  0  0  0  0
 26 43  1  0  0  0  0
 26 44  1  0  0  0  0
 27 45  1  0  0  0  0
 27 46  1  0  0  0  0
 27 47  1  0  0  0  0
M  END
>  <Mol_ID>
4094

>  <Formula>
C21H20N2O3S

>  <MolWeight>
380.4601

>  <Cat>
S8448

>  <Name>
ZINC00881524 (ROCK inhibitor)

>  <Synonyms>
N/A

>  <Target>
ROCK

>  <Form>
free base

>  <CAS>
557782-81-7

>  <URL>
http://selleckchem.com/products/zinc00881524-rock-inhibitor.html

$$$$
