ZK824859
 OpenBabel08302521353D

 50 52  0  0  0  0  0  0  0  0999 V2000
    1.4811    8.4040    6.1197 F   0  0  0  0  0  0  0  0  0  0  0  0
    5.0104    7.3433    3.1797 F   0  0  0  0  0  0  0  0  0  0  0  0
    0.1016    9.5191    4.0293 O   0  0  0  0  0  0  0  0  0  0  0  0
    3.6009    8.3820    1.0997 O   0  0  0  0  0  0  0  0  0  0  0  0
   -1.7090    9.1302    2.2031 O   0  0  0  0  0  0  0  0  0  0  0  0
   -2.2176   11.3197    2.0351 O   0  0  0  0  0  0  0  0  0  0  0  0
    1.8360    9.0073    2.5621 N   0  0  0  0  0  0  0  0  0  0  0  0
    1.9020   10.4349   -8.1089 N   0  0  0  0  0  0  0  0  0  0  0  0
    2.4575    9.0719   -2.3197 C   0  0  0  0  0  0  0  0  0  0  0  0
    2.9563    9.7421   -3.5465 C   0  0  0  0  0  0  0  0  0  0  0  0
    1.1872    8.4654   -2.2846 C   0  0  0  0  0  0  0  0  0  0  0  0
    0.7247    7.7974   -1.1485 C   0  0  0  0  0  0  0  0  0  0  0  0
    3.2282    9.0125   -1.1423 C   0  0  0  0  0  0  0  0  0  0  0  0
   -0.1876   10.6924    3.2458 C   0  0  2  0  0  0  0  0  0  0  0  0
    2.6024    9.2811   -4.8318 C   0  0  0  0  0  0  0  0  0  0  0  0
    3.0474    9.9178   -6.0040 C   0  0  0  0  0  0  0  0  0  0  0  0
    2.7519    8.3838    0.0147 C   0  0  0  0  0  0  0  0  0  0  0  0
   -0.3825   11.8733    4.2049 C   0  0  0  0  0  0  0  0  0  0  0  0
    1.5157    7.7386   -0.0074 C   0  0  0  0  0  0  0  0  0  0  0  0
    3.7984   10.8660   -3.4795 C   0  0  0  0  0  0  0  0  0  0  0  0
    3.8934   11.0255   -5.8889 C   0  0  0  0  0  0  0  0  0  0  0  0
    2.6278    9.4137   -7.3616 C   0  0  0  0  0  0  0  0  0  0  0  0
    4.2692   11.4958   -4.6345 C   0  0  0  0  0  0  0  0  0  0  0  0
    0.8871   12.2256    4.9701 C   0  0  0  0  0  0  0  0  0  0  0  0
    1.3630    9.0107    3.8232 C   0  0  0  0  0  0  0  0  0  0  0  0
    3.0497    8.4256    2.3734 C   0  0  0  0  0  0  0  0  0  0  0  0
   -1.4725   10.4438    2.4479 C   0  0  0  0  0  0  0  0  0  0  0  0
    2.0267    8.4249    4.8966 C   0  0  0  0  0  0  0  0  0  0  0  0
    3.8033    7.8777    3.4071 C   0  0  0  0  0  0  0  0  0  0  0  0
    3.2786    7.8644    4.6916 C   0  0  0  0  0  0  0  0  0  0  0  0
   -1.0124    8.5784    2.6125 H   0  0  0  0  0  0  0  0  0  0  0  0
    1.5394   10.0277   -8.9680 H   0  0  0  0  0  0  0  0  0  0  0  0
    1.0928   10.7273   -7.5624 H   0  0  0  0  0  0  0  0  0  0  0  0
    0.5291    8.5093   -3.1497 H   0  0  0  0  0  0  0  0  0  0  0  0
   -0.2557    7.3282   -1.1562 H   0  0  0  0  0  0  0  0  0  0  0  0
    4.2227    9.4521   -1.1149 H   0  0  0  0  0  0  0  0  0  0  0  0
    0.5878   10.9435    2.5120 H   0  0  0  0  0  0  0  0  0  0  0  0
    1.9701    8.4009   -4.9314 H   0  0  0  0  0  0  0  0  0  0  0  0
   -0.7137   12.7596    3.6506 H   0  0  0  0  0  0  0  0  0  0  0  0
   -1.1698   11.6321    4.9294 H   0  0  0  0  0  0  0  0  0  0  0  0
    1.1462    7.1977    0.8572 H   0  0  0  0  0  0  0  0  0  0  0  0
    4.0921   11.2817   -2.5185 H   0  0  0  0  0  0  0  0  0  0  0  0
    4.2495   11.5320   -6.7838 H   0  0  0  0  0  0  0  0  0  0  0  0
    3.5178    9.1063   -7.9218 H   0  0  0  0  0  0  0  0  0  0  0  0
    1.9894    8.5284   -7.2612 H   0  0  0  0  0  0  0  0  0  0  0  0
    4.9212   12.3614   -4.5534 H   0  0  0  0  0  0  0  0  0  0  0  0
    1.6470   12.6318    4.2950 H   0  0  0  0  0  0  0  0  0  0  0  0
    0.6700   12.9810    5.7313 H   0  0  0  0  0  0  0  0  0  0  0  0
    1.3123   11.3585    5.4823 H   0  0  0  0  0  0  0  0  0  0  0  0
    3.8295    7.4197    5.5115 H   0  0  0  0  0  0  0  0  0  0  0  0
  1 28  1  0  0  0  0
  2 29  1  0  0  0  0
  3 25  1  0  0  0  0
  4 17  1  0  0  0  0
  4 26  1  0  0  0  0
  5 27  1  0  0  0  0
  5 31  1  0  0  0  0
  6 27  2  0  0  0  0
  7 25  2  0  0  0  0
  7 26  1  0  0  0  0
  8 22  1  0  0  0  0
  8 32  1  0  0  0  0
  8 33  1  0  0  0  0
  9 10  1  0  0  0  0
  9 11  2  0  0  0  0
  9 13  1  0  0  0  0
 10 15  2  0  0  0  0
 10 20  1  0  0  0  0
 11 12  1  0  0  0  0
 11 34  1  0  0  0  0
 12 19  2  0  0  0  0
 12 35  1  0  0  0  0
 13 17  2  0  0  0  0
 13 36  1  0  0  0  0
 14 27  1  0  0  0  0
 14 37  1  6  0  0  0
 14 18  1  0  0  0  0
 14  3  1  0  0  0  0
 15 16  1  0  0  0  0
 15 38  1  0  0  0  0
 16 21  2  0  0  0  0
 16 22  1  0  0  0  0
 17 19  1  0  0  0  0
 18 24  1  0  0  0  0
 18 39  1  0  0  0  0
 18 40  1  0  0  0  0
 19 41  1  0  0  0  0
 20 23  2  0  0  0  0
 20 42  1  0  0  0  0
 21 23  1  0  0  0  0
 21 43  1  0  0  0  0
 22 44  1  0  0  0  0
 22 45  1  0  0  0  0
 23 46  1  0  0  0  0
 24 47  1  0  0  0  0
 24 48  1  0  0  0  0
 24 49  1  0  0  0  0
 25 28  1  0  0  0  0
 26 29  2  0  0  0  0
 28 30  2  0  0  0  0
 29 30  1  0  0  0  0
 30 50  1  0  0  0  0
M  END
>  <Mol_ID>
6634

>  <Formula>
C22H20F2N2O4

>  <MolWeight>
414.4020064

>  <Cat>
S0479

>  <Name>
ZK824859

>  <Synonyms>
N/A

>  <Target>
Serine Protease

>  <Form>
Free base

>  <CAS>
2254001-81-3

>  <URL>
http://www.selleckchem.com/products/zk824859.html

$$$$
