ZM241385.cdx
 OpenBabel08302520413D

 40 43  0  0  0  0  0  0  0  0999 V2000
   -6.8023   -2.6155    1.1383 C   0  0  0  0  0  0  0  0  0  0  0  0
   -6.4276   -1.2742    1.0536 C   0  0  0  0  0  0  0  0  0  0  0  0
   -5.3350   -0.8918    0.2630 C   0  0  0  0  0  0  0  0  0  0  0  0
   -4.6037   -1.8788   -0.4138 C   0  0  0  0  0  0  0  0  0  0  0  0
   -4.9742   -3.2232   -0.3218 C   0  0  0  0  0  0  0  0  0  0  0  0
   -6.0770   -3.5784    0.4483 C   0  0  0  0  0  0  0  0  0  0  0  0
   -6.4868   -4.8750    0.5501 O   0  0  0  0  0  0  0  0  0  0  0  0
   -4.9832    0.5668    0.1175 C   0  0  0  0  0  0  0  0  0  0  0  0
   -3.9872    1.0765    1.1702 C   0  0  0  0  0  0  0  0  0  0  0  0
   -3.6791    2.4704    0.9179 N   0  0  0  0  0  0  0  0  0  0  0  0
   -4.5792    3.4860    1.0224 C   0  0  0  0  0  0  0  0  0  0  0  0
   -5.6289    3.3663    1.8017 N   0  0  0  0  0  0  0  0  0  0  0  0
   -6.5054    4.4006    1.8128 C   0  0  0  0  0  0  0  0  0  0  0  0
   -6.3395    5.4226    0.9390 N   0  0  0  0  0  0  0  0  0  0  0  0
   -5.2044    5.5288    0.1481 C   0  0  0  0  0  0  0  0  0  0  0  0
   -4.3173    4.5832    0.2285 N   0  0  0  0  0  0  0  0  0  0  0  0
   -7.5579    4.6754    2.5578 N   0  0  0  0  0  0  0  0  0  0  0  0
   -8.0308    5.8604    2.0179 C   0  0  0  0  0  0  0  0  0  0  0  0
   -7.3389    6.3141    0.9608 N   0  0  0  0  0  0  0  0  0  0  0  0
   -9.1817    6.6360    2.5621 C   0  0  0  0  0  0  0  0  0  0  0  0
   -9.7298    7.7242    1.9358 O   0  0  0  0  0  0  0  0  0  0  0  0
  -10.7100    8.2059    2.7370 C   0  0  0  0  0  0  0  0  0  0  0  0
  -10.7978    7.4598    3.8873 C   0  0  0  0  0  0  0  0  0  0  0  0
   -9.8308    6.4284    3.7643 C   0  0  0  0  0  0  0  0  0  0  0  0
   -5.0723    6.6261   -0.6671 N   0  0  0  0  0  0  0  0  0  0  0  0
   -7.6640   -2.9054    1.7327 H   0  0  0  0  0  0  0  0  0  0  0  0
   -7.0073   -0.5263    1.5914 H   0  0  0  0  0  0  0  0  0  0  0  0
   -3.7532   -1.6045   -1.0341 H   0  0  0  0  0  0  0  0  0  0  0  0
   -4.4026   -3.9703   -0.8631 H   0  0  0  0  0  0  0  0  0  0  0  0
   -5.8912   -5.4306    0.0218 H   0  0  0  0  0  0  0  0  0  0  0  0
   -4.5821    0.7402   -0.8906 H   0  0  0  0  0  0  0  0  0  0  0  0
   -5.9107    1.1529    0.1548 H   0  0  0  0  0  0  0  0  0  0  0  0
   -4.3722    0.9443    2.1863 H   0  0  0  0  0  0  0  0  0  0  0  0
   -3.0584    0.4976    1.1011 H   0  0  0  0  0  0  0  0  0  0  0  0
   -2.7097    2.7545    0.9452 H   0  0  0  0  0  0  0  0  0  0  0  0
  -11.2313    9.0747    2.3595 H   0  0  0  0  0  0  0  0  0  0  0  0
  -11.4715    7.6426    4.7122 H   0  0  0  0  0  0  0  0  0  0  0  0
   -9.5992    5.6542    4.4835 H   0  0  0  0  0  0  0  0  0  0  0  0
   -5.9361    7.1343   -0.8556 H   0  0  0  0  0  0  0  0  0  0  0  0
   -4.4582    6.5093   -1.4633 H   0  0  0  0  0  0  0  0  0  0  0  0
  1  2  2  0  0  0  0
  1 26  1  0  0  0  0
  2  3  1  0  0  0  0
  2 27  1  0  0  0  0
  3  4  2  0  0  0  0
  3  8  1  0  0  0  0
  4  5  1  0  0  0  0
  4 28  1  0  0  0  0
  5  6  2  0  0  0  0
  5 29  1  0  0  0  0
  6  1  1  0  0  0  0
  6  7  1  0  0  0  0
  7 30  1  0  0  0  0
  8  9  1  0  0  0  0
  8 31  1  0  0  0  0
  8 32  1  0  0  0  0
  9 10  1  0  0  0  0
  9 33  1  0  0  0  0
  9 34  1  0  0  0  0
 10 11  1  0  0  0  0
 10 35  1  0  0  0  0
 11 12  2  0  0  0  0
 12 13  1  0  0  0  0
 13 17  2  0  0  0  0
 14 15  1  0  0  0  0
 14 13  1  0  0  0  0
 15 16  2  0  0  0  0
 15 25  1  0  0  0  0
 16 11  1  0  0  0  0
 17 18  1  0  0  0  0
 18 19  2  0  0  0  0
 18 20  1  0  0  0  0
 19 14  1  0  0  0  0
 20 21  1  0  0  0  0
 21 22  1  0  0  0  0
 22 23  2  0  0  0  0
 22 36  1  0  0  0  0
 23 24  1  0  0  0  0
 23 37  1  0  0  0  0
 24 20  2  0  0  0  0
 24 38  1  0  0  0  0
 25 39  1  0  0  0  0
 25 40  1  0  0  0  0
M  END
>  <Mol_ID>
3948

>  <Formula>
C16H15N7O2

>  <MolWeight>
337.336

>  <Cat>
S8105

>  <Name>
ZM241385

>  <Synonyms>
N/A

>  <Target>
Adenosine Receptor

>  <Form>
free base

>  <CAS>
139180-30-6

>  <URL>
http://selleckchem.com/products/zm241385.html

$$$$
