Zoledronic acid (ZOL 446)
 OpenBabel08302521453D

 26 26  0  0  0  0  0  0  0  0999 V2000
   -0.6422    0.4882    1.3630 C   0  0  0  0  0  0  0  0  0  0  0  0
    0.3092   -0.4930    1.4767 C   0  0  0  0  0  0  0  0  0  0  0  0
    1.0481   -0.4259    0.3223 N   0  0  0  0  0  0  0  0  0  0  0  0
    0.5589    0.6090   -0.4024 C   0  0  0  0  0  0  0  0  0  0  0  0
   -0.4857    1.1485    0.1876 N   0  0  0  0  0  0  0  0  0  0  0  0
    2.1694   -1.2995    0.0679 C   0  0  0  0  0  0  0  0  0  0  0  0
    2.9234   -1.1930   -1.2543 C   0  0  0  0  0  0  0  0  0  0  0  0
    3.8399    0.3604   -1.3941 P   0  0  0  0  0  0  0  0  0  0  0  0
    3.9488   -2.2536   -1.0789 O   0  0  0  0  0  0  0  0  0  0  0  0
    1.9206   -1.5433   -2.7444 P   0  0  0  0  0  0  0  0  0  0  0  0
    3.1720   -1.8217   -3.5737 O   0  0  0  0  0  0  0  0  0  0  0  0
    1.3066   -2.9178   -2.1074 O   0  0  0  0  0  0  0  0  0  0  0  0
    0.9725   -1.8745   -4.1531 O   0  0  0  0  0  0  0  0  0  0  0  0
    3.7559    1.1327    0.0085 O   0  0  0  0  0  0  0  0  0  0  0  0
    5.3784   -0.1074   -1.3822 O   0  0  0  0  0  0  0  0  0  0  0  0
    3.5136    1.2683   -2.5287 O   0  0  0  0  0  0  0  0  0  0  0  0
   -1.4090    0.7596    2.0750 H   0  0  0  0  0  0  0  0  0  0  0  0
    0.5174   -1.2083    2.2671 H   0  0  0  0  0  0  0  0  0  0  0  0
    0.9636    0.9542   -1.3418 H   0  0  0  0  0  0  0  0  0  0  0  0
    2.8743   -1.1357    0.9002 H   0  0  0  0  0  0  0  0  0  0  0  0
    1.7843   -2.3224    0.1949 H   0  0  0  0  0  0  0  0  0  0  0  0
    4.8212   -1.8044   -1.0726 H   0  0  0  0  0  0  0  0  0  0  0  0
    0.3419   -2.9996   -2.2272 H   0  0  0  0  0  0  0  0  0  0  0  0
    0.8283   -1.0646   -4.6781 H   0  0  0  0  0  0  0  0  0  0  0  0
    4.1191    2.0395   -0.0119 H   0  0  0  0  0  0  0  0  0  0  0  0
    5.9043    0.3093   -2.0945 H   0  0  0  0  0  0  0  0  0  0  0  0
  1  2  2  0  0  0  0
  1 17  1  0  0  0  0
  2  3  1  0  0  0  0
  2 18  1  0  0  0  0
  3  4  1  0  0  0  0
  3  6  1  0  0  0  0
  4  5  2  0  0  0  0
  4 19  1  0  0  0  0
  5  1  1  0  0  0  0
  6  7  1  0  0  0  0
  6 20  1  0  0  0  0
  6 21  1  0  0  0  0
  7  8  1  0  0  0  0
  7  9  1  0  0  0  0
  7 10  1  0  0  0  0
  8 14  1  0  0  0  0
  8 15  1  0  0  0  0
  8 16  2  0  0  0  0
  9 22  1  0  0  0  0
 10 11  2  0  0  0  0
 10 12  1  0  0  0  0
 10 13  1  0  0  0  0
 12 23  1  0  0  0  0
 13 24  1  0  0  0  0
 14 25  1  0  0  0  0
 15 26  1  0  0  0  0
M  END
>  <Mol_ID>
9385

>  <Formula>
C5H10N2O7P2

>  <MolWeight>
272.089622

>  <Cat>
S1314

>  <Name>
Zoledronic acid (ZOL 446)

>  <Synonyms>
ZA, Zoledronate, CGP-4244, GP42446A, ZOL 446, Zometa, Zomera, Aclasta, Reclast

>  <Target>
Apoptosis related,Autophagy,Ras,Rho

>  <Form>
Free Base

>  <CAS>
118072-93-8

>  <URL>
http://www.selleckchem.com/products/Zoledronic-Acid.html

$$$$
