ZOMIG (zolmitriptan).cdx
 OpenBabel08302520393D

 42 44  0  0  0  0  0  0  0  0999 V2000
    1.0113   -1.3761   -0.0039 C   0  0  0  0  0  0  0  0  0  0  0  0
    2.1936   -0.6197    0.1295 C   0  0  0  0  0  0  0  0  0  0  0  0
    2.1112    0.7755    0.2018 C   0  0  0  0  0  0  0  0  0  0  0  0
    0.8953    1.4432    0.0266 C   0  0  0  0  0  0  0  0  0  0  0  0
   -0.2431    0.6673   -0.2138 C   0  0  0  0  0  0  0  0  0  0  0  0
   -0.2297   -0.7263   -0.1822 C   0  0  0  0  0  0  0  0  0  0  0  0
   -1.5262    1.0529   -0.5196 N   0  0  0  0  0  0  0  0  0  0  0  0
   -2.3332   -0.0451   -0.6388 C   0  0  0  0  0  0  0  0  0  0  0  0
   -1.5871   -1.1680   -0.3329 C   0  0  0  0  0  0  0  0  0  0  0  0
   -2.1253   -2.5654   -0.1870 C   0  0  0  0  0  0  0  0  0  0  0  0
   -2.1568   -3.0041    1.2958 C   0  0  0  0  0  0  0  0  0  0  0  0
   -2.7359   -4.3412    1.5596 N   0  0  0  0  0  0  0  0  0  0  0  0
   -2.5878   -4.6636    2.9858 C   0  0  0  0  0  0  0  0  0  0  0  0
   -4.1537   -4.4097    1.2030 C   0  0  0  0  0  0  0  0  0  0  0  0
    3.5392   -1.3162    0.1608 C   0  0  0  0  0  0  0  0  0  0  0  0
    4.4593   -0.9028   -0.9980 C   0  0  2  0  0  0  0  0  0  0  0  0
    3.9418   -1.2326   -2.2885 N   0  0  0  0  0  0  0  0  0  0  0  0
    4.9378   -1.6774   -3.1119 C   0  0  0  0  0  0  0  0  0  0  0  0
    6.0757   -1.8812   -2.3892 O   0  0  0  0  0  0  0  0  0  0  0  0
    5.7828   -1.6468   -1.0023 C   0  0  0  0  0  0  0  0  0  0  0  0
    4.8387   -1.8261   -4.3124 O   0  0  0  0  0  0  0  0  0  0  0  0
    1.0483   -2.4622   -0.0181 H   0  0  0  0  0  0  0  0  0  0  0  0
    3.0064    1.3715    0.3693 H   0  0  0  0  0  0  0  0  0  0  0  0
    0.8478    2.5272    0.0541 H   0  0  0  0  0  0  0  0  0  0  0  0
   -1.8204    2.0102   -0.6548 H   0  0  0  0  0  0  0  0  0  0  0  0
   -3.3774    0.0663   -0.8992 H   0  0  0  0  0  0  0  0  0  0  0  0
   -3.1382   -2.5838   -0.6060 H   0  0  0  0  0  0  0  0  0  0  0  0
   -1.5213   -3.2627   -0.7786 H   0  0  0  0  0  0  0  0  0  0  0  0
   -1.1171   -3.0144    1.6508 H   0  0  0  0  0  0  0  0  0  0  0  0
   -2.6783   -2.2431    1.8930 H   0  0  0  0  0  0  0  0  0  0  0  0
   -3.1379   -3.9635    3.6276 H   0  0  0  0  0  0  0  0  0  0  0  0
   -2.9537   -5.6760    3.1918 H   0  0  0  0  0  0  0  0  0  0  0  0
   -1.5340   -4.6461    3.2824 H   0  0  0  0  0  0  0  0  0  0  0  0
   -4.7528   -3.6584    1.7287 H   0  0  0  0  0  0  0  0  0  0  0  0
   -4.2985   -4.2869    0.1267 H   0  0  0  0  0  0  0  0  0  0  0  0
   -4.5635   -5.3999    1.4478 H   0  0  0  0  0  0  0  0  0  0  0  0
    4.0237   -1.1063    1.1218 H   0  0  0  0  0  0  0  0  0  0  0  0
    3.3816   -2.4022    0.1214 H   0  0  0  0  0  0  0  0  0  0  0  0
    4.6465    0.1786   -0.9942 H   0  0  0  0  0  0  0  0  0  0  0  0
    3.1106   -0.8251   -2.7007 H   0  0  0  0  0  0  0  0  0  0  0  0
    6.5883   -1.0485   -0.5632 H   0  0  0  0  0  0  0  0  0  0  0  0
    5.7426   -2.6132   -0.4912 H   0  0  0  0  0  0  0  0  0  0  0  0
  1  2  2  0  0  0  0
  1 22  1  0  0  0  0
  2  3  1  0  0  0  0
  2 15  1  0  0  0  0
  3  4  2  0  0  0  0
  3 23  1  0  0  0  0
  4  5  1  0  0  0  0
  4 24  1  0  0  0  0
  5  6  2  0  0  0  0
  5  7  1  0  0  0  0
  6  1  1  0  0  0  0
  7  8  1  0  0  0  0
  7 25  1  0  0  0  0
  8  9  2  0  0  0  0
  8 26  1  0  0  0  0
  9  6  1  0  0  0  0
  9 10  1  0  0  0  0
 10 11  1  0  0  0  0
 10 27  1  0  0  0  0
 10 28  1  0  0  0  0
 11 12  1  0  0  0  0
 11 29  1  0  0  0  0
 11 30  1  0  0  0  0
 12 13  1  0  0  0  0
 12 14  1  0  0  0  0
 13 31  1  0  0  0  0
 13 32  1  0  0  0  0
 13 33  1  0  0  0  0
 14 34  1  0  0  0  0
 14 35  1  0  0  0  0
 14 36  1  0  0  0  0
 15 37  1  0  0  0  0
 15 38  1  0  0  0  0
 16 17  1  0  0  0  0
 16 15  1  0  0  0  0
 16 39  1  1  0  0  0
 17 18  1  0  0  0  0
 17 40  1  0  0  0  0
 18 19  1  0  0  0  0
 18 21  2  0  0  0  0
 19 20  1  0  0  0  0
 20 16  1  0  0  0  0
 20 41  1  0  0  0  0
 20 42  1  0  0  0  0
M  END
>  <Mol_ID>
373

>  <Formula>
C16H21N3O2

>  <MolWeight>
287.35684

>  <Cat>
S1649

>  <Name>
Zolmitriptan

>  <Synonyms>
BW-311C90

>  <Target>
5-HT Receptor

>  <Form>
free base

>  <CAS>
139264-17-8

>  <URL>
http://selleckchem.com/products/Zolmitriptan(Zomig).html

$$$$
