Zoxazolamine.cdx
 OpenBabel08302522053D

 16 17  0  0  0  0  0  0  0  0999 V2000
    0.3092   -0.6438    0.0010 C   0  0  0  0  0  0  0  0  0  0  0  0
    0.3072    0.7419    0.0016 C   0  0  0  0  0  0  0  0  0  0  0  0
    1.6105   -1.0544   -0.0014 O   0  0  0  0  0  0  0  0  0  0  0  0
   -0.8316   -1.4370    0.0012 C   0  0  0  0  0  0  0  0  0  0  0  0
    1.5963    1.2084    0.0003 N   0  0  0  0  0  0  0  0  0  0  0  0
   -0.9188    1.4187    0.0021 C   0  0  0  0  0  0  0  0  0  0  0  0
    2.3166    0.1121   -0.0043 C   0  0  0  0  0  0  0  0  0  0  0  0
   -2.0501   -0.7460    0.0011 C   0  0  0  0  0  0  0  0  0  0  0  0
   -2.0958    0.6546    0.0014 C   0  0  0  0  0  0  0  0  0  0  0  0
    3.6396    0.0009   -0.0154 N   0  0  0  0  0  0  0  0  0  0  0  0
   -0.7766   -2.5180    0.0001 H   0  0  0  0  0  0  0  0  0  0  0  0
   -0.9488    2.5025    0.0018 H   0  0  0  0  0  0  0  0  0  0  0  0
   -2.9817   -1.3093    0.0001 H   0  0  0  0  0  0  0  0  0  0  0  0
   -3.0591    1.1611    0.0005 H   0  0  0  0  0  0  0  0  0  0  0  0
    4.0940   -0.9003    0.0086 H   0  0  0  0  0  0  0  0  0  0  0  0
    4.2164    0.8301    0.0078 H   0  0  0  0  0  0  0  0  0  0  0  0
  1  2  2  0  0  0  0
  1  3  1  0  0  0  0
  1  4  1  0  0  0  0
  2  5  1  0  0  0  0
  2  6  1  0  0  0  0
  3  7  1  0  0  0  0
  4  8  2  0  0  0  0
  4 11  1  0  0  0  0
  5  7  2  0  0  0  0
  6  9  2  0  0  0  0
  6 12  1  0  0  0  0
  7 10  1  0  0  0  0
  8  9  1  0  0  0  0
  8 13  1  0  0  0  0
  9 14  1  0  0  0  0
 10 15  1  0  0  0  0
 10 16  1  0  0  0  0
M  END
>  <Mol_ID>
1363

>  <Formula>
C7H5ClN2O

>  <MolWeight>
168.5804

>  <Cat>
S4233

>  <Name>
Zoxazolamine

>  <Synonyms>
NSC 24995, Contrazole

>  <Target>
Others

>  <Form>
free base

>  <CAS>
61-80-3

>  <URL>
http://selleckchem.com/products/zoxazolamine.html

$$$$
