Zucapsaicin
 OpenBabel08302520403D

 49 49  0  0  0  0  0  0  0  0999 V2000
   -1.8224   -0.6951    2.4316 C   0  0  0  0  0  0  0  0  0  0  0  0
   -1.0730   -1.8537    2.5344 C   0  0  0  0  0  0  0  0  0  0  0  0
   -1.6980    0.3240    3.3973 C   0  0  0  0  0  0  0  0  0  0  0  0
   -2.9097   -0.5796    1.4187 C   0  0  0  0  0  0  0  0  0  0  0  0
   -0.1866   -2.0048    3.5821 C   0  0  0  0  0  0  0  0  0  0  0  0
   -0.8298    0.1715    4.4649 C   0  0  0  0  0  0  0  0  0  0  0  0
   -3.2889   -1.7518    0.6653 N   0  0  0  0  0  0  0  0  0  0  0  0
   -0.0825   -0.9934    4.5367 C   0  0  0  0  0  0  0  0  0  0  0  0
    0.5717   -3.1371    3.7869 O   0  0  0  0  0  0  0  0  0  0  0  0
   -4.3035   -2.6337    0.9199 C   0  0  0  0  0  0  0  0  0  0  0  0
    0.7754   -1.1245    5.5946 O   0  0  0  0  0  0  0  0  0  0  0  0
    0.3495   -4.1891    2.8435 C   0  0  0  0  0  0  0  0  0  0  0  0
   -5.1614   -2.4891    2.1821 C   0  0  0  0  0  0  0  0  0  0  0  0
   -4.5368   -3.5255    0.1006 O   0  0  0  0  0  0  0  0  0  0  0  0
   -6.3087   -1.4574    2.1229 C   0  0  0  0  0  0  0  0  0  0  0  0
   -5.8273   -0.0134    1.9933 C   0  0  0  0  0  0  0  0  0  0  0  0
   -6.8222    1.1119    2.0024 C   0  0  0  0  0  0  0  0  0  0  0  0
   -7.4271    1.2929    3.3549 C   0  0  0  0  0  0  0  0  0  0  0  0
   -8.2404    2.3148    3.6411 C   0  0  0  0  0  0  0  0  0  0  0  0
   -8.6469    3.3669    2.6445 C   0  0  0  0  0  0  0  0  0  0  0  0
  -10.1339    3.2172    2.3589 C   0  0  0  0  0  0  0  0  0  0  0  0
   -8.2675    4.7457    3.1745 C   0  0  0  0  0  0  0  0  0  0  0  0
   -1.2489   -2.6374    1.8100 H   0  0  0  0  0  0  0  0  0  0  0  0
   -2.3391    1.2087    3.3586 H   0  0  0  0  0  0  0  0  0  0  0  0
   -3.7074   -0.4060    2.0984 H   0  0  0  0  0  0  0  0  0  0  0  0
   -2.8080    0.2808    0.7523 H   0  0  0  0  0  0  0  0  0  0  0  0
   -0.7587    0.9289    5.2383 H   0  0  0  0  0  0  0  0  0  0  0  0
   -2.8065   -1.9296   -0.2049 H   0  0  0  0  0  0  0  0  0  0  0  0
    1.2134   -1.9946    5.4683 H   0  0  0  0  0  0  0  0  0  0  0  0
   -0.6674   -4.5900    2.9359 H   0  0  0  0  0  0  0  0  0  0  0  0
    0.5451   -3.8546    1.8175 H   0  0  0  0  0  0  0  0  0  0  0  0
    1.0505   -4.9967    3.0633 H   0  0  0  0  0  0  0  0  0  0  0  0
   -5.6123   -3.4751    2.3640 H   0  0  0  0  0  0  0  0  0  0  0  0
   -4.5057   -2.3080    3.0431 H   0  0  0  0  0  0  0  0  0  0  0  0
   -6.9734   -1.6912    1.2868 H   0  0  0  0  0  0  0  0  0  0  0  0
   -6.8896   -1.5557    3.0441 H   0  0  0  0  0  0  0  0  0  0  0  0
   -5.1739    0.2036    2.8481 H   0  0  0  0  0  0  0  0  0  0  0  0
   -5.3000    0.0904    1.0391 H   0  0  0  0  0  0  0  0  0  0  0  0
   -6.2498    2.0220    1.7614 H   0  0  0  0  0  0  0  0  0  0  0  0
   -7.5740    0.9655    1.2249 H   0  0  0  0  0  0  0  0  0  0  0  0
   -7.1681    0.5927    4.1484 H   0  0  0  0  0  0  0  0  0  0  0  0
   -8.6427    2.3941    4.6485 H   0  0  0  0  0  0  0  0  0  0  0  0
   -8.1234    3.2423    1.6890 H   0  0  0  0  0  0  0  0  0  0  0  0
  -10.7321    3.3510    3.2653 H   0  0  0  0  0  0  0  0  0  0  0  0
  -10.4616    3.9455    1.6118 H   0  0  0  0  0  0  0  0  0  0  0  0
  -10.3466    2.2160    1.9617 H   0  0  0  0  0  0  0  0  0  0  0  0
   -7.1832    4.8110    3.3326 H   0  0  0  0  0  0  0  0  0  0  0  0
   -8.5459    5.5232    2.4589 H   0  0  0  0  0  0  0  0  0  0  0  0
   -8.7580    4.9563    4.1298 H   0  0  0  0  0  0  0  0  0  0  0  0
  1  2  2  0  0  0  0
  1  3  1  0  0  0  0
  1  4  1  0  0  0  0
  2  5  1  0  0  0  0
  2 23  1  0  0  0  0
  3  6  2  0  0  0  0
  3 24  1  0  0  0  0
  4  7  1  0  0  0  0
  4 25  1  0  0  0  0
  4 26  1  0  0  0  0
  5  8  2  0  0  0  0
  5  9  1  0  0  0  0
  6  8  1  0  0  0  0
  6 27  1  0  0  0  0
  7 10  1  0  0  0  0
  7 28  1  0  0  0  0
  8 11  1  0  0  0  0
  9 12  1  0  0  0  0
 10 13  1  0  0  0  0
 10 14  2  0  0  0  0
 11 29  1  0  0  0  0
 12 30  1  0  0  0  0
 12 31  1  0  0  0  0
 12 32  1  0  0  0  0
 13 15  1  0  0  0  0
 13 33  1  0  0  0  0
 13 34  1  0  0  0  0
 15 16  1  0  0  0  0
 15 35  1  0  0  0  0
 15 36  1  0  0  0  0
 16 17  1  0  0  0  0
 16 37  1  0  0  0  0
 16 38  1  0  0  0  0
 17 18  1  0  0  0  0
 17 39  1  0  0  0  0
 17 40  1  0  0  0  0
 18 19  2  0  0  0  0
 18 41  1  0  0  0  0
 19 20  1  0  0  0  0
 19 42  1  0  0  0  0
 20 21  1  0  0  0  0
 20 22  1  0  0  0  0
 20 43  1  0  0  0  0
 21 44  1  0  0  0  0
 21 45  1  0  0  0  0
 21 46  1  0  0  0  0
 22 47  1  0  0  0  0
 22 48  1  0  0  0  0
 22 49  1  0  0  0  0
M  END
>  <Mol_ID>
3730

>  <Formula>
C18H27NO3

>  <MolWeight>
305.41188

>  <Cat>
S6409

>  <Name>
Zucapsaicin

>  <Synonyms>
N/A

>  <Target>
TRP Channel

>  <Form>
Free Base

>  <CAS>
25775-90-0

>  <URL>
http://www.selleck.cn/products/zucapsaicin.html

$$$$
