ÐÂ½¨ CS ChemDraw Drawing.cdx
 OpenBabel08302520433D

 54 57  0  0  0  0  0  0  0  0999 V2000
   -1.5217   -1.0121    0.7909 C   0  0  0  0  0  0  0  0  0  0  0  0
   -1.7891   -1.0935    2.1673 C   0  0  0  0  0  0  0  0  0  0  0  0
   -1.6782    0.0700    2.9522 C   0  0  0  0  0  0  0  0  0  0  0  0
   -1.2505    1.3007    2.4015 C   0  0  0  0  0  0  0  0  0  0  0  0
   -0.9234    1.3720    1.0521 C   0  0  0  0  0  0  0  0  0  0  0  0
   -1.1194    0.2379    0.2731 C   0  0  0  0  0  0  0  0  0  0  0  0
   -1.6872   -2.0860   -0.1881 C   0  0  0  0  0  0  0  0  0  0  0  0
   -0.7412    2.5610    0.2948 N   0  0  0  0  0  0  0  0  0  0  0  0
   -1.7047   -1.7172   -1.5230 N   0  0  0  0  0  0  0  0  0  0  0  0
   -1.9155   -2.7399   -2.3065 C   0  0  0  0  0  0  0  0  0  0  0  0
   -2.0699   -4.2263   -1.5170 S   0  0  0  0  0  0  0  0  0  0  0  0
   -1.8411   -3.4453    0.0158 C   0  0  0  0  0  0  0  0  0  0  0  0
   -1.8675   -2.5487   -3.6495 N   0  0  0  0  0  0  0  0  0  0  0  0
   -2.2608   -3.2571   -4.7231 C   0  0  0  0  0  0  0  0  0  0  0  0
   -1.9802   -2.8215   -5.8468 O   0  0  0  0  0  0  0  0  0  0  0  0
   -3.0889   -4.4983   -4.5944 C   0  0  0  0  0  0  0  0  0  0  0  0
    0.4086    3.7475    0.5169 S   0  0  0  0  0  0  0  0  0  0  0  0
    0.0046    4.7939   -0.4049 O   0  0  0  0  0  0  0  0  0  0  0  0
    0.4875    4.0507    1.9296 O   0  0  0  0  0  0  0  0  0  0  0  0
    2.0207    3.1417   -0.1029 C   0  0  0  0  0  0  0  0  0  0  0  0
    2.2940    3.3096   -1.4643 C   0  0  0  0  0  0  0  0  0  0  0  0
    3.6185    3.2777   -1.8934 C   0  0  0  0  0  0  0  0  0  0  0  0
    4.6849    3.2158   -0.9627 C   0  0  0  0  0  0  0  0  0  0  0  0
    4.4768    3.0550    0.4501 C   0  0  0  0  0  0  0  0  0  0  0  0
    3.0782    2.8837    0.7992 C   0  0  0  0  0  0  0  0  0  0  0  0
    5.4740    2.9920    1.5445 C   0  0  0  0  0  0  0  0  0  0  0  0
    4.9923    2.4706    2.7760 C   0  0  0  0  0  0  0  0  0  0  0  0
    3.6752    2.1631    3.0344 C   0  0  0  0  0  0  0  0  0  0  0  0
    2.7423    2.3820    2.0553 C   0  0  0  0  0  0  0  0  0  0  0  0
    6.8503    3.3464    1.5460 N   0  0  0  0  0  0  0  0  0  0  0  0
    7.5108    3.4845    2.8821 C   0  0  0  0  0  0  0  0  0  0  0  0
    7.5284    4.2065    0.5796 C   0  0  0  0  0  0  0  0  0  0  0  0
   -2.1482   -2.0113    2.6128 H   0  0  0  0  0  0  0  0  0  0  0  0
   -1.9627    0.0226    4.0048 H   0  0  0  0  0  0  0  0  0  0  0  0
   -1.2327    2.1854    3.0342 H   0  0  0  0  0  0  0  0  0  0  0  0
   -0.9902    0.3457   -0.8034 H   0  0  0  0  0  0  0  0  0  0  0  0
   -1.5962    2.9569   -0.0989 H   0  0  0  0  0  0  0  0  0  0  0  0
   -1.8064   -4.0077    0.9331 H   0  0  0  0  0  0  0  0  0  0  0  0
   -1.5015   -1.6338   -3.8974 H   0  0  0  0  0  0  0  0  0  0  0  0
   -2.4916   -5.3226   -4.2063 H   0  0  0  0  0  0  0  0  0  0  0  0
   -3.9680   -4.3037   -3.9752 H   0  0  0  0  0  0  0  0  0  0  0  0
   -3.4464   -4.7786   -5.5921 H   0  0  0  0  0  0  0  0  0  0  0  0
    1.4907    3.4835   -2.1773 H   0  0  0  0  0  0  0  0  0  0  0  0
    3.8301    3.3494   -2.9603 H   0  0  0  0  0  0  0  0  0  0  0  0
    5.6907    3.2064   -1.3759 H   0  0  0  0  0  0  0  0  0  0  0  0
    5.6510    2.2789    3.6151 H   0  0  0  0  0  0  0  0  0  0  0  0
    3.3750    1.7880    4.0044 H   0  0  0  0  0  0  0  0  0  0  0  0
    1.7249    2.0951    2.2953 H   0  0  0  0  0  0  0  0  0  0  0  0
    8.4966    3.9636    2.8178 H   0  0  0  0  0  0  0  0  0  0  0  0
    6.9195    4.1172    3.5599 H   0  0  0  0  0  0  0  0  0  0  0  0
    7.6905    2.5041    3.3394 H   0  0  0  0  0  0  0  0  0  0  0  0
    8.5543    3.8282    0.4499 H   0  0  0  0  0  0  0  0  0  0  0  0
    7.0820    4.2640   -0.4043 H   0  0  0  0  0  0  0  0  0  0  0  0
    7.6318    5.2248    0.9774 H   0  0  0  0  0  0  0  0  0  0  0  0
  1  2  2  0  0  0  0
  1  7  1  0  0  0  0
  2  3  1  0  0  0  0
  2 33  1  0  0  0  0
  3  4  2  0  0  0  0
  3 34  1  0  0  0  0
  4  5  1  0  0  0  0
  4 35  1  0  0  0  0
  5  6  2  0  0  0  0
  5  8  1  0  0  0  0
  6  1  1  0  0  0  0
  6 36  1  0  0  0  0
  7  9  1  0  0  0  0
  8 17  1  0  0  0  0
  8 37  1  0  0  0  0
  9 10  2  0  0  0  0
 10 11  1  0  0  0  0
 10 13  1  0  0  0  0
 11 12  1  0  0  0  0
 12  7  2  0  0  0  0
 12 38  1  0  0  0  0
 13 14  1  0  0  0  0
 13 39  1  0  0  0  0
 14 15  2  0  0  0  0
 14 16  1  0  0  0  0
 16 40  1  0  0  0  0
 16 41  1  0  0  0  0
 16 42  1  0  0  0  0
 17 18  2  0  0  0  0
 17 19  2  0  0  0  0
 17 20  1  0  0  0  0
 20 21  2  0  0  0  0
 21 22  1  0  0  0  0
 21 43  1  0  0  0  0
 22 23  2  0  0  0  0
 22 44  1  0  0  0  0
 23 24  1  0  0  0  0
 23 45  1  0  0  0  0
 24 25  2  0  0  0  0
 24 26  1  0  0  0  0
 25 20  1  0  0  0  0
 26 27  2  0  0  0  0
 26 30  1  0  0  0  0
 27 28  1  0  0  0  0
 27 46  1  0  0  0  0
 28 29  2  0  0  0  0
 28 47  1  0  0  0  0
 29 25  1  0  0  0  0
 29 48  1  0  0  0  0
 30 31  1  0  0  0  0
 30 32  1  0  0  0  0
 31 49  1  0  0  0  0
 31 50  1  0  0  0  0
 31 51  1  0  0  0  0
 32 52  1  0  0  0  0
 32 53  1  0  0  0  0
 32 54  1  0  0  0  0
M  END
>  <Mol_ID>
4057

>  <Formula>
C23H22N4O3S2

>  <MolWeight>
466.57578

>  <Cat>
S8299

>  <Name>
HA15

>  <Synonyms>
N/A

>  <Target>
HSP (HSP90)

>  <Form>
free base

>  <CAS>
1609402-14-3

>  <URL>
http://selleckchem.com/products/ha15.html

$$$$
